<?xml version="1.0" encoding="UTF-8"?>

<!-- generated on 2024-07-23 19:35:38 by Eclipse SUMO netconvert Version 1.19.0
<configuration xmlns:xsi="http://www.w3.org/2001/XMLSchema-instance" xsi:noNamespaceSchemaLocation="http://sumo.dlr.de/xsd/netconvertConfiguration.xsd">

    <input>
        <type-files value="D:\ProgramData\Anaconda3\envs\trans\lib\site-packages\tshub\sumo_tools\./osm_build_type/net.typ.xml"/>
        <osm-files value="E:\OneDrive%20-%20CUHK-Shenzhen\RA_419\UAV_Path_planing\code\map_dataset\US_UAM\US_UAM.osm"/>
    </input>

    <output>
        <output-file value="E:\OneDrive%20-%20CUHK-Shenzhen\RA_419\UAV_Path_planing\code\map_dataset\US_UAM\US_UAM.net.xml"/>
        <output.street-names value="true"/>
        <output.original-names value="true"/>
    </output>

    <projection>
        <proj.utm value="true"/>
    </projection>

    <processing>
        <geometry.remove value="true"/>
        <roundabouts.guess value="true"/>
    </processing>

    <building_defaults>
        <default.lanenumber value="3"/>
    </building_defaults>

    <tls_building>
        <tls.discard-simple value="true"/>
        <tls.guess value="true"/>
        <tls.guess.threshold value="12"/>
        <tls.join value="true"/>
        <tls.guess-signals value="true"/>
        <tls.green.time value="30"/>
        <tls.layout value="incoming"/>
    </tls_building>

    <ramp_guessing>
        <ramps.guess value="true"/>
    </ramp_guessing>

    <edge_removal>
        <keep-edges.by-vclass value="passenger"/>
    </edge_removal>

    <junctions>
        <no-turnarounds value="true"/>
        <junctions.join value="true"/>
        <junctions.corner-detail value="5"/>
    </junctions>

</configuration>
-->

<net version="1.16" junctionCornerDetail="5" limitTurnSpeed="5.50" xmlns:xsi="http://www.w3.org/2001/XMLSchema-instance" xsi:noNamespaceSchemaLocation="http://sumo.dlr.de/xsd/net_file.xsd">

    <location netOffset="-297161.12,-4333882.49" convBoundary="0.00,0.00,5107.80,6668.52" origBoundary="-77.358767,39.130516,-77.275191,39.190742" projParameter="+proj=utm +zone=18 +ellps=WGS84 +datum=WGS84 +units=m +no_defs"/>

    <type id="highway.primary" priority="12" numLanes="2" speed="27.78" disallow="tram rail_urban rail rail_electric rail_fast ship" oneway="0"/>
    <type id="highway.residential" priority="3" numLanes="2" speed="13.89" disallow="tram rail_urban rail rail_electric rail_fast ship" oneway="0"/>
    <type id="highway.secondary" priority="11" numLanes="1" speed="27.78" disallow="tram rail_urban rail rail_electric rail_fast ship" oneway="0"/>
    <type id="highway.tertiary" priority="10" numLanes="1" speed="22.22" disallow="tram rail_urban rail rail_electric rail_fast ship" oneway="0"/>
    <type id="highway.unclassified" priority="4" numLanes="1" speed="13.89" disallow="tram rail_urban rail rail_electric rail_fast ship" oneway="0"/>

    <edge id=":10700838899_0" function="internal">
        <lane id=":10700838899_0_0" index="0" disallow="tram rail_urban rail rail_electric rail_fast ship" speed="27.78" length="8.21" shape="4295.46,4087.58 4294.59,4085.34 4293.64,4083.94 4292.68,4082.54 4291.81,4080.29"/>
        <lane id=":10700838899_0_1" index="1" disallow="tram rail_urban rail rail_electric rail_fast ship" speed="27.78" length="8.21" shape="4295.46,4087.58 4295.07,4085.21 4295.18,4083.51 4295.29,4081.82 4294.89,4079.44"/>
    </edge>
    <edge id=":1133012279_0" function="internal">
        <lane id=":1133012279_0_0" index="0" disallow="tram rail_urban rail rail_electric rail_fast ship" speed="27.78" length="8.43" shape="4173.12,4823.25 4172.55,4825.70 4172.89,4827.57 4173.23,4829.44 4172.62,4831.88"/>
        <lane id=":1133012279_0_1" index="1" disallow="tram rail_urban rail rail_electric rail_fast ship" speed="27.78" length="8.43" shape="4173.12,4823.25 4169.73,4830.51"/>
    </edge>
    <edge id=":1133012279_2" function="internal">
        <lane id=":1133012279_2_0" index="0" disallow="tram rail_urban rail rail_electric rail_fast ship" speed="27.78" length="8.75" shape="4163.95,4827.75 4165.46,4825.76 4167.11,4824.84 4168.74,4823.92 4170.21,4821.91"/>
    </edge>
    <edge id=":1683809997_0" function="internal">
        <lane id=":1683809997_0_0" index="0" disallow="tram rail_urban rail rail_electric rail_fast ship" speed="6.45" length="9.03" shape="4412.63,3126.06 4411.32,3123.96 4409.65,3122.79 4407.63,3122.58 4405.26,3123.31"/>
    </edge>
    <edge id=":1683809997_1" function="internal">
        <lane id=":1683809997_1_0" index="0" disallow="tram rail_urban rail rail_electric rail_fast ship" speed="9.27" length="19.52" shape="4415.56,3124.78 4414.10,3119.60 4414.65,3115.22 4417.19,3111.63 4421.73,3108.85"/>
    </edge>
    <edge id=":1683809997_2" function="internal">
        <lane id=":1683809997_2_0" index="0" disallow="tram rail_urban rail rail_electric rail_fast ship" speed="6.52" length="9.13" shape="4424.26,3114.73 4422.15,3116.03 4420.97,3117.70 4420.73,3119.76 4421.42,3122.20"/>
    </edge>
    <edge id=":1683809997_3" function="internal">
        <lane id=":1683809997_3_0" index="0" disallow="tram rail_urban rail rail_electric rail_fast ship" speed="13.89" length="20.91" shape="4424.26,3114.73 4405.26,3123.31"/>
        <lane id=":1683809997_3_1" index="1" disallow="tram rail_urban rail rail_electric rail_fast ship" speed="13.89" length="20.91" shape="4423.00,3111.79 4403.89,3120.42"/>
    </edge>
    <edge id=":1683809997_5" function="internal">
        <lane id=":1683809997_5_0" index="0" disallow="tram rail_urban rail rail_electric rail_fast ship" speed="13.89" length="21.14" shape="4401.15,3114.64 4420.47,3105.91"/>
        <lane id=":1683809997_5_1" index="1" disallow="tram rail_urban rail rail_electric rail_fast ship" speed="13.89" length="21.14" shape="4402.52,3117.53 4421.73,3108.85"/>
    </edge>
    <edge id=":1683809997_7" function="internal">
        <lane id=":1683809997_7_0" index="0" disallow="tram rail_urban rail rail_electric rail_fast ship" speed="9.21" length="19.56" shape="4402.52,3117.53 4407.66,3115.94 4412.03,3116.40 4415.64,3118.92 4418.49,3123.49"/>
    </edge>
    <edge id=":1687877973_0" function="internal">
        <lane id=":1687877973_0_0" index="0" disallow="tram rail_urban rail rail_electric rail_fast ship" speed="22.22" length="0.43" shape="3903.62,2034.31 3903.52,2034.24 3903.45,2034.18 3903.38,2034.13 3903.27,2034.07"/>
    </edge>
    <edge id=":1687877973_1" function="internal">
        <lane id=":1687877973_1_0" index="0" disallow="tram rail_urban rail rail_electric rail_fast ship" speed="22.22" length="0.10" shape="3904.77,2031.24 3904.85,2031.26"/>
    </edge>
    <edge id=":1687878089_0" function="internal">
        <lane id=":1687878089_0_0" index="0" disallow="tram rail_urban rail rail_electric rail_fast ship" speed="21.81" length="8.09" shape="3945.00,2044.74 3947.35,2045.29 3948.98,2045.72 3950.60,2045.87 3952.96,2045.63"/>
    </edge>
    <edge id=":1687878089_1" function="internal">
        <lane id=":1687878089_1_0" index="0" disallow="tram rail_urban rail rail_electric rail_fast ship" speed="11.95" length="8.21" shape="3945.63,2048.82 3947.44,2047.26 3948.90,2046.45 3950.56,2046.02 3952.96,2045.63"/>
    </edge>
    <edge id=":1687878091_0" function="internal">
        <lane id=":1687878091_0_0" index="0" disallow="tram rail_urban rail rail_electric rail_fast ship" speed="10.68" length="5.99" shape="3960.61,2044.81 3962.34,2044.64 3963.48,2044.23 3964.52,2043.52 3965.97,2042.48"/>
    </edge>
    <edge id=":1687878091_1" function="internal">
        <lane id=":1687878091_1_0" index="0" disallow="tram rail_urban rail rail_electric rail_fast ship" speed="11.04" length="6.00" shape="3960.61,2044.81 3962.35,2044.88 3963.51,2045.22 3964.61,2045.85 3966.13,2046.78"/>
    </edge>
    <edge id=":1687878350_0" function="internal">
        <lane id=":1687878350_0_0" index="0" disallow="tram rail_urban rail rail_electric rail_fast ship" speed="15.84" length="7.39" shape="3978.53,2053.43 3977.87,2055.53 3977.38,2056.99 3977.18,2058.47 3977.39,2060.62"/>
    </edge>
    <edge id=":1687878350_1" function="internal">
        <lane id=":1687878350_1_0" index="0" disallow="tram rail_urban rail rail_electric rail_fast ship" speed="22.22" length="7.40" shape="3974.48,2053.89 3975.57,2055.79 3976.35,2057.11 3976.92,2058.49 3977.39,2060.62"/>
    </edge>
    <edge id=":1687878477_0" function="internal">
        <lane id=":1687878477_0_0" index="0" disallow="tram rail_urban rail rail_electric rail_fast ship" speed="11.88" length="7.04" shape="3937.18,2065.48 3936.93,2063.46 3936.37,2062.15 3935.49,2060.96 3934.25,2059.26"/>
    </edge>
    <edge id=":1687878477_1" function="internal">
        <lane id=":1687878477_1_0" index="0" disallow="tram rail_urban rail rail_electric rail_fast ship" speed="22.22" length="7.07" shape="3937.18,2065.48 3937.18,2063.39 3937.38,2061.98 3937.77,2060.58 3938.33,2058.55"/>
    </edge>
    <edge id=":1687878542_0" function="internal">
        <lane id=":1687878542_0_0" index="0" disallow="tram rail_urban rail rail_electric rail_fast ship" speed="9.56" length="8.38" shape="3977.43,2060.87 3977.92,2062.11 3979.02,2063.53 3980.73,2065.12 3983.05,2066.88"/>
        <lane id=":1687878542_0_1" index="1" disallow="tram rail_urban rail rail_electric rail_fast ship" speed="10.21" length="9.62" shape="3977.43,2060.87 3978.08,2063.94 3978.93,2066.40 3979.97,2068.25 3981.20,2069.50"/>
    </edge>
    <edge id=":1687878542_2" function="internal">
        <lane id=":1687878542_2_0" index="0" disallow="tram rail_urban rail rail_electric rail_fast ship" speed="22.22" length="10.40" shape="3977.43,2060.87 3977.85,2063.87 3977.90,2066.03 3977.61,2068.18 3977.02,2071.16"/>
    </edge>
    <edge id=":1687878588_0" function="internal">
        <lane id=":1687878588_0_0" index="0" disallow="tram rail_urban rail rail_electric rail_fast ship" speed="22.22" length="7.13" shape="3939.00,2073.88 3938.27,2071.89 3937.75,2070.52 3937.42,2069.11 3937.24,2067.02"/>
    </edge>
    <edge id=":1687878588_1" function="internal">
        <lane id=":1687878588_1_0" index="0" disallow="tram rail_urban rail rail_electric rail_fast ship" speed="12.22" length="7.10" shape="3934.89,2073.55 3935.96,2071.72 3936.73,2070.44 3937.17,2069.07 3937.24,2067.02"/>
    </edge>
    <edge id=":1687878819_0" function="internal">
        <lane id=":1687878819_0_0" index="0" disallow="tram rail_urban rail rail_electric rail_fast ship" speed="10.16" length="9.12" shape="3973.35,2085.80 3970.83,2084.72 3968.99,2083.90 3967.18,2083.69 3964.75,2084.45"/>
    </edge>
    <edge id=":1687878819_1" function="internal">
        <lane id=":1687878819_1_0" index="0" disallow="tram rail_urban rail rail_electric rail_fast ship" speed="13.87" length="10.88" shape="3973.44,2078.34 3971.60,2080.79 3969.80,2082.20 3967.65,2083.21 3964.75,2084.45"/>
    </edge>
    <edge id=":1687878873_0" function="internal">
        <lane id=":1687878873_0_0" index="0" disallow="tram rail_urban rail rail_electric rail_fast ship" speed="18.05" length="7.89" shape="3957.41,2085.63 3955.12,2085.98 3953.62,2086.51 3952.17,2087.26 3950.06,2088.29"/>
    </edge>
    <edge id=":1687878873_1" function="internal">
        <lane id=":1687878873_1_0" index="0" disallow="tram rail_urban rail rail_electric rail_fast ship" speed="22.22" length="7.89" shape="3957.41,2085.63 3955.10,2085.72 3953.53,2085.47 3951.97,2084.96 3949.72,2084.30"/>
    </edge>
    <edge id=":1687880257_0" function="internal">
        <lane id=":1687880257_0_0" index="0" disallow="tram rail_urban rail rail_electric rail_fast ship" speed="6.60" length="9.02" shape="4306.34,2226.13 4305.74,2228.54 4306.02,2230.59 4307.19,2232.26 4309.24,2233.56"/>
        <lane id=":1687880257_0_1" index="1" disallow="tram rail_urban rail rail_electric rail_fast ship" speed="8.08" length="14.03" shape="4303.37,2224.94 4302.44,2228.68 4302.90,2231.85 4304.73,2234.45 4307.93,2236.48"/>
    </edge>
    <edge id=":1687880257_2" function="internal">
        <lane id=":1687880257_2_0" index="0" disallow="tram rail_urban rail rail_electric rail_fast ship" speed="6.51" length="8.91" shape="4290.24,2225.71 4292.62,2226.25 4294.61,2225.90 4296.21,2224.67 4297.43,2222.56"/>
        <lane id=":1687880257_2_1" index="1" disallow="tram rail_urban rail rail_electric rail_fast ship" speed="7.33" length="11.57" shape="4290.24,2225.71 4293.93,2226.75 4296.85,2226.76 4299.00,2225.76 4300.40,2223.75"/>
    </edge>
    <edge id=":1687880257_4" function="internal">
        <lane id=":1687880257_4_0" index="0" disallow="tram rail_urban rail rail_electric rail_fast ship" speed="22.22" length="20.46" shape="4290.24,2225.71 4309.24,2233.56"/>
        <lane id=":1687880257_4_1" index="1" disallow="tram rail_urban rail rail_electric rail_fast ship" speed="22.22" length="20.46" shape="4289.11,2228.71 4307.93,2236.48"/>
    </edge>
    <edge id=":1687880347_0" function="internal">
        <lane id=":1687880347_0_0" index="0" disallow="tram rail_urban rail rail_electric rail_fast ship" speed="6.66" length="9.40" shape="4303.70,2248.39 4301.30,2247.79 4299.24,2248.14 4297.52,2249.46 4296.13,2251.73"/>
        <lane id=":1687880347_0_1" index="1" disallow="tram rail_urban rail rail_electric rail_fast ship" speed="7.45" length="12.03" shape="4303.70,2248.39 4300.01,2247.24 4297.04,2247.19 4294.77,2248.26 4293.21,2250.44"/>
    </edge>
    <edge id=":1687880347_2" function="internal">
        <lane id=":1687880347_2_0" index="0" disallow="tram rail_urban rail rail_electric rail_fast ship" speed="22.22" length="20.94" shape="4303.70,2248.39 4284.32,2240.65"/>
        <lane id=":1687880347_2_1" index="1" disallow="tram rail_urban rail rail_electric rail_fast ship" speed="22.22" length="20.94" shape="4304.95,2245.45 4285.45,2237.65"/>
    </edge>
    <edge id=":1687880347_4" function="internal">
        <lane id=":1687880347_4_0" index="0" disallow="tram rail_urban rail rail_electric rail_fast ship" speed="6.39" length="9.04" shape="4287.35,2247.86 4288.02,2245.46 4287.74,2243.45 4286.51,2241.85 4284.32,2240.65"/>
        <lane id=":1687880347_4_1" index="1" disallow="tram rail_urban rail rail_electric rail_fast ship" speed="7.90" length="14.41" shape="4290.28,2249.15 4291.35,2245.32 4290.90,2242.13 4288.93,2239.57 4285.45,2237.65"/>
    </edge>
    <edge id=":1787456229_0" function="internal">
        <lane id=":1787456229_0_0" index="0" disallow="tram rail_urban rail rail_electric rail_fast ship" speed="6.55" length="9.26" shape="4495.16,3090.24 4493.88,3088.12 4492.19,3086.93 4490.09,3086.69 4487.58,3087.39"/>
        <lane id=":1787456229_0_1" index="1" disallow="tram rail_urban rail rail_electric rail_fast ship" speed="7.35" length="11.96" shape="4495.16,3090.24 4493.34,3086.83 4491.26,3084.72 4488.91,3083.93 4486.31,3084.46"/>
    </edge>
    <edge id=":1787456229_2" function="internal">
        <lane id=":1787456229_2_0" index="0" disallow="tram rail_urban rail rail_electric rail_fast ship" speed="27.78" length="21.04" shape="4495.16,3090.24 4486.43,3071.24"/>
        <lane id=":1787456229_2_1" index="1" disallow="tram rail_urban rail rail_electric rail_fast ship" speed="27.78" length="21.04" shape="4498.11,3089.02 4489.28,3069.79"/>
    </edge>
    <edge id=":1787456229_4" function="internal">
        <lane id=":1787456229_4_0" index="0" disallow="tram rail_urban rail rail_electric rail_fast ship" speed="6.38" length="9.04" shape="4483.77,3078.59 4485.89,3077.28 4487.05,3075.62 4487.22,3073.60 4486.43,3071.24"/>
        <lane id=":1787456229_4_1" index="1" disallow="tram rail_urban rail rail_electric rail_fast ship" speed="7.90" length="14.42" shape="4485.04,3081.52 4488.43,3079.44 4490.27,3076.78 4490.56,3073.57 4489.28,3069.79"/>
    </edge>
    <edge id=":1793613788_0" function="internal">
        <lane id=":1793613788_0_0" index="0" disallow="tram rail_urban rail rail_electric rail_fast ship" speed="8.73" length="7.11" shape="3397.22,3358.61 3397.48,3359.57 3398.27,3360.83 3399.58,3362.38 3401.41,3364.23"/>
        <lane id=":1793613788_0_1" index="1" disallow="tram rail_urban rail rail_electric rail_fast ship" speed="10.91" length="11.35" shape="3394.02,3358.62 3394.42,3360.31 3395.63,3362.39 3397.64,3364.87 3400.44,3367.74"/>
    </edge>
    <edge id=":1793613788_2" function="internal">
        <lane id=":1793613788_2_0" index="0" disallow="tram rail_urban rail rail_electric rail_fast ship" speed="6.99" length="7.95" shape="3383.58,3364.82 3385.35,3363.92 3386.61,3362.58 3387.37,3360.82 3387.62,3358.63"/>
        <lane id=":1793613788_2_1" index="1" disallow="tram rail_urban rail rail_electric rail_fast ship" speed="7.80" length="10.09" shape="3383.58,3364.82 3386.75,3363.51 3389.01,3362.04 3390.37,3360.41 3390.82,3358.62"/>
    </edge>
    <edge id=":1793613788_4" function="internal">
        <lane id=":1793613788_4_0" index="0" disallow="tram rail_urban rail rail_electric rail_fast ship" speed="11.29" length="18.52" shape="3383.58,3364.82 3389.80,3363.05 3394.84,3362.36 3398.71,3362.76 3401.41,3364.23"/>
        <lane id=":1793613788_4_1" index="1" disallow="tram rail_urban rail rail_electric rail_fast ship" speed="8.70" length="18.52" shape="3384.65,3367.83 3388.12,3364.51 3391.91,3363.38 3396.02,3364.46 3400.44,3367.74"/>
    </edge>
    <edge id=":1793613794_0" function="internal">
        <lane id=":1793613794_0_0" index="0" disallow="tram rail_urban rail rail_electric rail_fast ship" speed="8.33" length="8.18" shape="3413.90,3384.84 3412.55,3384.88 3410.93,3385.52 3409.04,3386.75 3406.88,3388.57"/>
        <lane id=":1793613794_0_1" index="1" disallow="tram rail_urban rail rail_electric rail_fast ship" speed="10.37" length="12.98" shape="3414.57,3381.71 3412.35,3381.75 3409.74,3382.72 3406.74,3384.63 3403.35,3387.47"/>
    </edge>
    <edge id=":1793613794_2" function="internal">
        <lane id=":1793613794_2_0" index="0" disallow="tram rail_urban rail rail_electric rail_fast ship" speed="13.89" length="10.91" shape="3407.01,3369.58 3409.29,3371.90 3410.94,3373.48 3412.85,3374.59 3415.89,3375.45"/>
        <lane id=":1793613794_2_1" index="1" disallow="tram rail_urban rail rail_electric rail_fast ship" speed="13.89" length="12.66" shape="3407.01,3369.58 3409.32,3372.59 3410.54,3375.19 3412.05,3377.23 3415.23,3378.58"/>
    </edge>
    <edge id=":1793613794_4" function="internal">
        <lane id=":1793613794_4_0" index="0" disallow="tram rail_urban rail rail_electric rail_fast ship" speed="9.62" length="20.69" shape="3407.01,3369.58 3410.77,3374.37 3412.00,3379.13 3410.70,3383.86 3406.88,3388.57"/>
        <lane id=":1793613794_4_1" index="1" disallow="tram rail_urban rail rail_electric rail_fast ship" speed="9.07" length="20.69" shape="3403.55,3370.70 3406.85,3374.91 3407.92,3379.11 3406.75,3383.30 3403.35,3387.47"/>
    </edge>
    <edge id=":1793613797_0" function="internal">
        <lane id=":1793613797_0_0" index="0" disallow="tram rail_urban rail rail_electric rail_fast ship" speed="13.89" length="10.19" shape="3400.66,3394.32 3398.30,3396.25 3396.58,3397.57 3395.27,3399.14 3394.15,3401.85"/>
        <lane id=":1793613797_0_1" index="1" disallow="tram rail_urban rail rail_electric rail_fast ship" speed="13.89" length="12.11" shape="3400.66,3394.32 3397.60,3396.23 3394.91,3397.01 3392.70,3398.09 3391.09,3400.91"/>
    </edge>
    <edge id=":1793613797_2" function="internal">
        <lane id=":1793613797_2_0" index="0" disallow="tram rail_urban rail rail_electric rail_fast ship" speed="9.40" length="21.16" shape="3400.66,3394.32 3395.38,3397.97 3390.48,3398.84 3385.96,3396.93 3381.82,3392.24"/>
        <lane id=":1793613797_2_1" index="1" disallow="tram rail_urban rail rail_electric rail_fast ship" speed="8.82" length="21.16" shape="3399.86,3390.70 3395.24,3393.90 3390.95,3394.65 3387.00,3392.96 3383.38,3388.83"/>
    </edge>
    <edge id=":1793613797_4" function="internal">
        <lane id=":1793613797_4_0" index="0" disallow="tram rail_urban rail rail_electric rail_fast ship" speed="8.51" length="7.59" shape="3384.97,3399.04 3384.93,3398.12 3384.39,3396.68 3383.35,3394.72 3381.82,3392.24"/>
        <lane id=":1793613797_4_1" index="1" disallow="tram rail_urban rail rail_electric rail_fast ship" speed="10.74" length="12.28" shape="3388.03,3399.97 3388.05,3398.28 3387.28,3395.85 3385.72,3392.71 3383.38,3388.83"/>
    </edge>
    <edge id=":1793613799_0" function="internal">
        <lane id=":1793613799_0_0" index="0" disallow="tram rail_urban rail rail_electric rail_fast ship" speed="6.98" length="7.70" shape="3787.93,3399.57 3788.24,3401.67 3789.02,3403.36 3790.27,3404.64 3792.00,3405.50"/>
        <lane id=":1793613799_0_1" index="1" disallow="tram rail_urban rail rail_electric rail_fast ship" speed="8.44" length="11.62" shape="3784.74,3399.67 3785.20,3402.79 3786.40,3405.30 3788.32,3407.22 3790.98,3408.53"/>
    </edge>
    <edge id=":1793613799_2" function="internal">
        <lane id=":1793613799_2_0" index="0" disallow="tram rail_urban rail rail_electric rail_fast ship" speed="9.04" length="7.09" shape="3774.48,3405.40 3776.05,3403.95 3777.30,3402.96 3778.10,3401.80 3778.34,3399.86"/>
        <lane id=":1793613799_2_1" index="1" disallow="tram rail_urban rail rail_electric rail_fast ship" speed="10.14" length="9.03" shape="3774.48,3405.40 3781.54,3399.76"/>
    </edge>
    <edge id=":1793613799_4" function="internal">
        <lane id=":1793613799_4_0" index="0" disallow="tram rail_urban rail rail_electric rail_fast ship" speed="10.80" length="17.18" shape="3774.48,3405.40 3777.08,3403.74 3780.87,3403.21 3785.84,3403.79 3792.00,3405.50"/>
        <lane id=":1793613799_4_1" index="1" disallow="tram rail_urban rail rail_electric rail_fast ship" speed="10.14" length="17.18" shape="3775.67,3408.85 3778.05,3407.26 3781.40,3406.68 3785.70,3407.10 3790.98,3408.53"/>
    </edge>
    <edge id=":1793613803_0" function="internal">
        <lane id=":1793613803_0_0" index="0" disallow="tram rail_urban rail rail_electric rail_fast ship" speed="6.82" length="9.64" shape="3626.45,3424.46 3623.79,3424.59 3621.79,3425.51 3620.43,3427.22 3619.71,3429.71"/>
    </edge>
    <edge id=":1793613803_1" function="internal">
        <lane id=":1793613803_1_0" index="0" disallow="tram rail_urban rail rail_electric rail_fast ship" speed="13.89" length="21.28" shape="3626.45,3424.46 3605.22,3422.07"/>
        <lane id=":1793613803_1_1" index="1" disallow="tram rail_urban rail rail_electric rail_fast ship" speed="13.89" length="21.28" shape="3626.72,3421.27 3605.66,3418.90"/>
    </edge>
    <edge id=":1793613803_3" function="internal">
        <lane id=":1793613803_3_0" index="0" disallow="tram rail_urban rail rail_electric rail_fast ship" speed="9.23" length="19.55" shape="3626.72,3421.27 3621.50,3420.05 3617.96,3417.44 3616.10,3413.45 3615.92,3408.07"/>
    </edge>
    <edge id=":1793613803_4" function="internal">
        <lane id=":1793613803_4_0" index="0" disallow="tram rail_urban rail rail_electric rail_fast ship" speed="6.47" length="9.06" shape="3622.29,3408.77 3622.37,3411.27 3623.23,3413.12 3624.86,3414.33 3627.28,3414.90"/>
    </edge>
    <edge id=":1793613803_5" function="internal">
        <lane id=":1793613803_5_0" index="0" disallow="tram rail_urban rail rail_electric rail_fast ship" speed="13.89" length="21.05" shape="3622.29,3408.77 3619.71,3429.71"/>
        <lane id=":1793613803_5_1" index="1" disallow="tram rail_urban rail rail_electric rail_fast ship" speed="13.89" length="21.05" shape="3619.11,3408.42 3616.54,3429.28"/>
    </edge>
    <edge id=":1793613803_7" function="internal">
        <lane id=":1793613803_7_0" index="0" disallow="tram rail_urban rail rail_electric rail_fast ship" speed="9.21" length="19.56" shape="3619.11,3408.42 3617.76,3413.63 3615.08,3417.12 3611.04,3418.87 3605.66,3418.90"/>
    </edge>
    <edge id=":1793613803_8" function="internal">
        <lane id=":1793613803_8_0" index="0" disallow="tram rail_urban rail rail_electric rail_fast ship" speed="6.45" length="9.03" shape="3606.54,3412.56 3609.02,3412.55 3610.88,3411.74 3612.12,3410.13 3612.74,3407.72"/>
    </edge>
    <edge id=":1793613803_9" function="internal">
        <lane id=":1793613803_9_0" index="0" disallow="tram rail_urban rail rail_electric rail_fast ship" speed="13.89" length="20.96" shape="3606.54,3412.56 3627.28,3414.90"/>
        <lane id=":1793613803_9_1" index="1" disallow="tram rail_urban rail rail_electric rail_fast ship" speed="13.89" length="20.96" shape="3606.10,3415.73 3627.00,3418.09"/>
    </edge>
    <edge id=":1793613803_11" function="internal">
        <lane id=":1793613803_11_0" index="0" disallow="tram rail_urban rail rail_electric rail_fast ship" speed="9.29" length="19.49" shape="3606.10,3415.73 3611.27,3417.20 3614.74,3419.95 3616.49,3423.97 3616.54,3429.28"/>
    </edge>
    <edge id=":1793613803_12" function="internal">
        <lane id=":1793613803_12_0" index="0" disallow="tram rail_urban rail rail_electric rail_fast ship" speed="6.56" length="9.18" shape="3610.20,3428.41 3610.17,3425.93 3609.33,3424.05 3607.68,3422.77 3605.22,3422.07"/>
    </edge>
    <edge id=":1793613803_13" function="internal">
        <lane id=":1793613803_13_0" index="0" disallow="tram rail_urban rail rail_electric rail_fast ship" speed="13.89" length="20.88" shape="3610.20,3428.41 3612.74,3407.72"/>
        <lane id=":1793613803_13_1" index="1" disallow="tram rail_urban rail rail_electric rail_fast ship" speed="13.89" length="20.88" shape="3613.37,3428.84 3615.92,3408.07"/>
    </edge>
    <edge id=":1793613803_15" function="internal">
        <lane id=":1793613803_15_0" index="0" disallow="tram rail_urban rail rail_electric rail_fast ship" speed="9.48" length="19.60" shape="3613.37,3428.84 3614.82,3423.74 3617.58,3420.25 3621.64,3418.36 3627.00,3418.09"/>
    </edge>
    <edge id=":1793613807_0" function="internal">
        <lane id=":1793613807_0_0" index="0" disallow="tram rail_urban rail rail_electric rail_fast ship" speed="13.89" length="20.77" shape="3976.68,3420.12 3955.91,3420.36"/>
        <lane id=":1793613807_0_1" index="1" disallow="tram rail_urban rail rail_electric rail_fast ship" speed="13.89" length="20.77" shape="3976.65,3416.92 3955.87,3417.16"/>
    </edge>
    <edge id=":1793613807_2" function="internal">
        <lane id=":1793613807_2_0" index="0" disallow="tram rail_urban rail rail_electric rail_fast ship" speed="9.34" length="19.40" shape="3976.65,3416.92 3971.45,3416.22 3967.68,3413.99 3965.35,3410.23 3964.44,3404.96"/>
    </edge>
    <edge id=":1793613807_3" function="internal">
        <lane id=":1793613807_3_0" index="0" disallow="tram rail_urban rail rail_electric rail_fast ship" speed="6.63" length="9.25" shape="3970.83,3404.75 3971.26,3407.29 3972.36,3409.11 3974.14,3410.18 3976.59,3410.52"/>
        <lane id=":1793613807_3_1" index="1" disallow="tram rail_urban rail rail_electric rail_fast ship" speed="8.10" length="14.32" shape="3967.63,3404.85 3968.30,3408.76 3970.02,3411.55 3972.80,3413.20 3976.62,3413.72"/>
    </edge>
    <edge id=":1793613807_5" function="internal">
        <lane id=":1793613807_5_0" index="0" disallow="tram rail_urban rail rail_electric rail_fast ship" speed="9.23" length="19.50" shape="3967.63,3404.85 3967.05,3410.18 3964.89,3414.00 3961.16,3416.33 3955.87,3417.16"/>
    </edge>
    <edge id=":1793613807_6" function="internal">
        <lane id=":1793613807_6_0" index="0" disallow="tram rail_urban rail rail_electric rail_fast ship" speed="6.47" length="9.03" shape="3955.79,3410.76 3958.24,3410.38 3959.97,3409.30 3960.96,3407.53 3961.24,3405.06"/>
    </edge>
    <edge id=":1793613807_7" function="internal">
        <lane id=":1793613807_7_0" index="0" disallow="tram rail_urban rail rail_electric rail_fast ship" speed="13.89" length="20.79" shape="3955.79,3410.76 3976.59,3410.52"/>
        <lane id=":1793613807_7_1" index="1" disallow="tram rail_urban rail rail_electric rail_fast ship" speed="13.89" length="20.79" shape="3955.83,3413.96 3976.62,3413.72"/>
    </edge>
    <edge id=":1793613809_0" function="internal">
        <lane id=":1793613809_0_0" index="0" disallow="tram rail_urban rail rail_electric rail_fast ship" speed="8.12" length="8.45" shape="3805.74,3422.34 3803.95,3422.65 3802.27,3423.56 3800.70,3425.06 3799.22,3427.15"/>
        <lane id=":1793613809_0_1" index="1" disallow="tram rail_urban rail rail_electric rail_fast ship" speed="9.98" length="13.10" shape="3805.69,3419.14 3803.02,3419.64 3800.47,3421.08 3798.03,3423.46 3795.71,3426.78"/>
    </edge>
    <edge id=":1793613809_2" function="internal">
        <lane id=":1793613809_2_0" index="0" disallow="tram rail_urban rail rail_electric rail_fast ship" speed="8.72" length="10.55" shape="3796.33,3408.84 3797.76,3410.58 3799.78,3411.81 3802.39,3412.53 3805.61,3412.74"/>
        <lane id=":1793613809_2_1" index="1" disallow="tram rail_urban rail rail_electric rail_fast ship" speed="9.37" length="12.28" shape="3796.33,3408.84 3798.43,3411.97 3800.68,3414.20 3803.09,3415.52 3805.65,3415.94"/>
    </edge>
    <edge id=":1793613809_4" function="internal">
        <lane id=":1793613809_4_0" index="0" disallow="tram rail_urban rail rail_electric rail_fast ship" speed="11.79" length="18.29" shape="3796.33,3408.84 3799.03,3414.45 3800.41,3419.37 3800.47,3423.60 3799.22,3427.15"/>
        <lane id=":1793613809_4_1" index="1" disallow="tram rail_urban rail rail_electric rail_fast ship" speed="11.16" length="18.29" shape="3793.55,3410.41 3795.86,3415.29 3796.99,3419.65 3796.94,3423.48 3795.71,3426.78"/>
    </edge>
    <edge id=":1793613810_0" function="internal">
        <lane id=":1793613810_0_0" index="0" disallow="tram rail_urban rail rail_electric rail_fast ship" speed="7.42" length="8.43" shape="3770.33,3429.50 3769.25,3427.80 3767.73,3426.60 3765.77,3425.91 3763.37,3425.71"/>