<?xml version="1.0" encoding="UTF-8"?>

<!-- generated on 2024-07-23 19:35:39 by Eclipse SUMO polyconvert Version 1.19.0
<configuration xmlns:xsi="http://www.w3.org/2001/XMLSchema-instance" xsi:noNamespaceSchemaLocation="http://sumo.dlr.de/xsd/polyconvertConfiguration.xsd">

    <input>
        <net-file value="E:\OneDrive%20-%20CUHK-Shenzhen\RA_419\UAV_Path_planing\code\map_dataset\US_UAM\US_UAM.net.xml"/>
        <osm-files value="E:\OneDrive%20-%20CUHK-Shenzhen\RA_419\UAV_Path_planing\code\map_dataset\US_UAM\US_UAM.osm"/>
        <osm.merge-relations value="1"/>
        <type-file value="D:\ProgramData\Anaconda3\envs\trans\lib\site-packages\tshub\sumo_tools\./osm_build_type/poly.typ.xml"/>
    </input>

    <output>
        <output-file value="E:\OneDrive%20-%20CUHK-Shenzhen\RA_419\UAV_Path_planing\code\map_dataset\US_UAM\US_UAM.poly.xml"/>
    </output>

    <building_defaults>
        <discard value="true"/>
    </building_defaults>

</configuration>
-->

<additional xmlns:xsi="http://www.w3.org/2001/XMLSchema-instance" xsi:noNamespaceSchemaLocation="http://sumo.dlr.de/xsd/additional_file.xsd">
    <location netOffset="-297161.12,-4333882.49" convBoundary="-9571.78,-7519.16,25408.54,19377.29" origBoundary="-77.460065,39.062863,-77.055799,39.308020" projParameter="+proj=utm +zone=18 +ellps=WGS84 +datum=WGS84 +units=m +no_defs"/>

    <poly id="1057654226" type="landuse" color="194,194,130" fill="1" layer="-3.00" shape="3493.879493,5661.654906 3835.016645,5473.784440 3854.033551,5455.752901 3965.180780,5377.182929 4007.550020,5329.004454 4007.817905,5303.130768 3995.087013,5276.665353 3937.372740,5267.968879 3734.640374,5246.343887 3553.069073,5254.650499 3519.627685,5288.754516 3477.637754,5278.739285 3424.819230,5317.035604 3406.492001,5325.810055 3382.217998,5283.024224 3364.233853,5159.700548 3246.787722,5172.855870 3239.772018,5079.740115 3298.045301,5073.634605 3309.068735,4996.685593 3285.256629,5008.376669 3271.786563,4989.316911 3286.211288,4973.244718 3319.537216,4970.551837 3333.061156,4955.424529 3310.556630,4945.835489 3290.315431,4842.894318 3269.017236,4844.358913 3245.887056,4882.821563 3211.441703,4914.186927 3203.855965,4907.916331 3218.743228,4873.362122 3215.302426,4847.582805 3195.971003,4816.666450 3235.870985,4817.493014 3236.301430,4798.090105 3258.100410,4779.975143 3258.475621,4721.767573 3277.799021,4715.732995 3271.788351,4698.337916 3273.245881,4682.596199 3286.887938,4672.086134 3309.941275,4666.878440 3336.850696,4667.114717 3365.012373,4571.248155 3321.835272,4551.101321 3349.128953,4530.092289 3384.343938,4529.195364 3399.373602,4500.169014 3185.212597,4488.932623 3103.093855,4484.629149 3071.110531,5084.963071 3031.103297,5116.471238 2898.338465,5147.571000 2884.126855,5171.946225 2936.871797,5348.870362 2932.793442,5407.172717 2906.748572,5404.139276 2893.754916,5367.530754 2865.295378,5342.390457 2832.833457,5342.297779 2797.175545,5362.600759 2783.959926,5389.727409 2781.909414,5418.412478 2794.738774,5448.572141 2819.704353,5482.109133 2807.838920,5495.762342 2773.763615,5535.006140 2792.076495,5562.249033 2867.417560,5534.457164 2934.108226,5494.891864 2954.424355,5491.596524 2978.886002,5587.032429 2990.564504,5590.432782 3014.211172,5590.295671 3020.969460,5600.741019 3075.301525,5803.481323 3080.574793,5810.277237 3176.477084,5788.894075 3193.964009,5783.827787 3180.230545,5718.138686 3189.643773,5686.955871 3193.685459,5663.762358 3233.097701,5718.178881 3257.536383,5767.435146 3335.517151,5734.038301 3493.879493,5661.654906"/>
    <poly id="1057654227" type="landuse" color="194,194,130" fill="1" layer="-3.00" shape="3142.492823,5174.593259 3165.320982,5160.616639 3171.662180,5118.427919 3198.287664,5107.586573 3197.734420,5085.887466 3171.398757,5089.790960 3171.428772,5054.693642 3129.578310,5050.218760 3126.053082,5075.709254 3094.817318,5087.123814 3093.200144,5114.886921 3103.701542,5144.639941 3129.446434,5172.149376 3142.492823,5174.593259"/>
    <poly id="1057654228" type="landuse" color="194,194,130" fill="1" layer="-3.00" shape="2106.058776,5889.238345 2159.482483,5874.929432 2083.555625,5662.596244 2155.321072,5640.431197 2211.597672,5664.856099 2278.509685,5670.527537 2409.690026,5650.541474 2621.632350,5597.093558 2668.676746,5623.590356 2745.124008,5784.202770 2684.806297,5818.997747 2711.118987,5881.243707 2738.103300,5945.094126 2583.225050,6035.974686 2343.343164,6156.635245 2285.867148,6174.645379 2177.222198,6205.140779 2160.402234,6205.149934 2103.036459,6205.188116 2028.510878,6192.327863 1984.462073,6138.035935 1968.895468,6118.854388 1940.412962,6083.755334 1891.046614,5894.754649 1927.126536,5855.033110 1950.081437,5810.106350 2034.591921,5778.383439 2106.058776,5889.238345"/>
    <poly id="1057654231" type="natural" color="140,196,107" fill="1" layer="-4.00" shape="2621.632350,5597.093558 2568.543076,5552.259215 2505.572649,5555.725065 2155.321072,5640.431197 2211.597672,5664.856099 2278.509685,5670.527537 2409.690026,5650.541474 2621.632350,5597.093558"/>
    <poly id="1057654233" type="natural" color="140,196,107" fill="0" layer="-4.00" shape="3185.212597,4488.932623 3165.203839,5019.744716"/>
    <poly id="1057654234" type="natural" color="140,196,107" fill="0" layer="-4.00" shape="3519.627685,5288.754516 3558.942354,5403.216704"/>
    <poly id="1057659964" type="natural" color="140,196,107" fill="1" layer="-4.00" shape="3269.017236,4844.358913 3290.315431,4842.894318 3316.392018,4823.359949 3291.229817,4782.429508 3290.110144,4811.090565 3269.017236,4844.358913"/>
    <poly id="1057659965" type="natural" color="140,196,107" fill="1" layer="-4.00" shape="3203.855965,4907.916331 3211.441703,4914.186927 3245.887056,4882.821563 3269.017236,4844.358913 3236.301430,4798.090105 3235.870985,4817.493014 3195.971003,4816.666450 3215.302426,4847.582805 3218.743228,4873.362122 3203.855965,4907.916331"/>
    <poly id="1058431608" type="forest" color="140,196,107" fill="1" layer="-4.00" shape="4466.524587,5638.448282 4542.934387,5616.187837 4623.003789,5591.991849 4700.571751,5560.474276 4786.312692,5522.275744 4903.987318,5462.957279 5204.970932,5317.735280 5176.957058,5283.224283 5164.421269,5287.949973 5154.244132,5292.627239 5141.172950,5302.508717 5132.623887,5307.644689 5110.473838,5319.821256 5072.681548,5330.771454 5009.324532,5355.928588 4867.356433,5426.477228 4829.598016,5455.142444 4803.592376,5473.081695 4783.098816,5486.805563 4759.215579,5462.553719 4749.627917,5452.589538 4741.099040,5443.475981 4737.202692,5437.410531 4735.769006,5424.818864 4743.030962,5406.065272 4717.736523,5396.087608 4690.044849,5382.927630 4689.073236,5362.638662 4737.163058,5357.267970 4750.304071,5345.384867 4719.384018,5314.303032 4694.965070,5338.932938 4670.688867,5332.994574 4670.143573,5341.504752 4601.405738,5270.175951 4604.057874,5246.552174 4596.448348,5202.408170 4530.309769,5172.685233 4503.810396,5170.124462 4485.385957,5138.260483 4490.739560,5093.321704 4472.305591,5097.942468 4452.526304,5085.971097 4430.641671,5027.417385 4452.176852,4999.161313 4417.034663,4966.332728 4411.341068,4942.920349 4400.058988,4900.246727 4361.494147,4842.571237 4354.013223,4821.980787 4374.646099,4812.683797 4497.356863,4915.340882 4510.799335,4915.000411 4526.593169,4934.458621 4551.212585,4936.145293 4620.356339,5029.531914 4654.419682,5019.440312 4651.768518,5006.568492 4637.751474,5002.303024 4650.178360,4980.286643 4619.515807,4941.346383 4602.975014,4910.811645 4609.579136,4896.794816 4629.606057,4900.441655 4634.326340,4885.084239 4632.481959,4849.101863 4590.958044,4839.068828 4553.432554,4785.519943 4533.325497,4760.628811 4513.406180,4761.588614 4500.723276,4736.976007 4507.983735,4730.783575 4495.566351,4716.315478 4505.199695,4693.903167 4530.403319,4700.195277 4540.317271,4688.860073 4445.860427,4585.019900 4414.272940,4619.539140 4402.138784,4616.603529 4387.500800,4624.371302 4367.708426,4611.933934 4348.536289,4623.970480 4322.957765,4602.905826 4343.625072,4576.526293 4361.242651,4558.065222 4360.003971,4527.609583 4383.967980,4521.460208 4365.790480,4499.752503 4349.715975,4487.687412 4331.536436,4483.983283 4296.887807,4562.461944 4301.003848,4578.528505 4285.385805,4620.951054 4312.134437,4651.681807 4326.712523,4659.630949 4332.007137,4685.363527 4329.587915,4699.740990 4311.771821,4710.354972 4266.834188,4693.935093 4260.977601,4646.048426 4172.992605,4833.956862 4185.887336,4866.882326 4202.031777,4881.721884 4226.837437,4908.803179 4243.369539,4957.340921 4213.362647,4999.206819 4201.476780,5024.442213 4144.456175,5079.932712 4135.608222,5096.783543 4135.607214,5114.798179 4137.972281,5171.547493 4153.589851,5202.093665 4163.691731,5216.608871 4182.617978,5267.862349 4203.963547,5286.712602 4238.566800,5298.307319 4253.307666,5312.716064 4273.857877,5373.157957 4295.157811,5408.635882 4320.827257,5396.900787 4341.879775,5404.219251 4362.136791,5416.644668 4388.543103,5433.978785 4410.790081,5506.850443 4444.642576,5561.868826 4466.524587,5638.448282"/>
    <poly id="1058431609" type="building" color="255,230,230" fill="1" layer="-1.00" shape="4405.399625,4609.845968 4434.134503,4577.042704 4426.611884,4570.502820 4397.877009,4603.306111 4405.399625,4609.845968"/>
    <poly id="1064982706" type="parking" color="184,184,179" fill="1" layer="-1.00" shape="4192.816952,3460.914651 4180.093861,3480.517946 4180.361270,3486.630782 4178.086201,3491.019962 4205.143172,3508.181851 4209.406401,3502.409506 4214.441889,3504.247666 4226.828196,3485.341562 4209.058089,3477.417875 4211.776505,3472.439934 4192.816952,3460.914651"/>
    <poly id="1074681252" type="leisure" color="207,245,201" fill="0" layer="-2.00" shape="715.826765,642.378651 836.436957,664.138463 670.284978,1028.131487 622.502789,1247.987174 648.958051,1295.185665 683.219829,1382.844399 738.469573,1407.687138 790.265851,1439.827465 736.092314,1488.249455 1073.188530,1516.851136 1215.237698,2006.496785"/>
    <poly id="1074681253" type="leisure" color="207,245,201" fill="0" layer="-2.00" shape="960.621773,2503.220371 651.177211,2486.285573 557.706506,2556.404031 516.607556,2507.629245 516.106682,2490.237985 517.479413,2474.742026 519.285995,2463.322132 528.740976,2425.248649 530.348586,2413.489589 537.506853,2247.570778 537.294685,2222.264113 532.536512,2175.960977 523.285846,2124.809118 498.867827,2025.146059 494.659557,2012.548646 489.321639,2000.413560 460.030168,1945.825173 455.411197,1931.727871 451.492544,1911.259462 449.667561,1887.471628 450.985937,1859.148850 470.712052,1735.499725 470.723702,1722.215829 469.076240,1715.016803 466.893260,1709.519818 464.001519,1704.374332 459.415583,1698.595078 414.002829,1661.460686 407.645128,1655.060811 401.753449,1647.282782 379.479302,1589.536800 374.800658,1546.685853 690.239745,1562.169210 571.626934,1398.095600 556.668084,1399.247924 543.735194,1358.920116 561.360813,1357.876671 536.345988,1290.093940 536.956186,1129.386921 715.826765,642.378651"/>
    <poly id="1074686410" type="residential" color="235,235,227" fill="1" layer="-3.00" shape="958.012887,2657.403541 989.185508,2671.105830 1000.804736,2679.047688 1007.701493,2691.653813 1007.175288,2704.462231 995.467410,2715.570564 975.410050,2723.473146 957.509746,2726.488814 936.940494,2725.597104 925.628457,2718.502638 923.587938,2705.760340 924.838223,2698.908634 938.745167,2662.731335 958.012887,2657.403541"/>
    <poly id="1074686410#1" type="forest" color="140,196,107" fill="1" layer="-4.00" shape="958.012887,2657.403541 989.185508,2671.105830 1000.804736,2679.047688 1007.701493,2691.653813 1007.175288,2704.462231 995.467410,2715.570564 975.410050,2723.473146 957.509746,2726.488814 936.940494,2725.597104 925.628457,2718.502638 923.587938,2705.760340 924.838223,2698.908634 938.745167,2662.731335 958.012887,2657.403541"/>
    <poly id="1074686411" type="landuse" color="194,194,130" fill="1" layer="-3.00" shape="584.506271,2582.901497 613.595138,2681.355745 800.534242,2648.389518 826.756091,2647.147073 845.592299,2508.661193 903.312955,2511.583001 885.416170,2525.827547 861.600305,2570.779124 858.089132,2644.917763 842.019907,2741.115871 825.050694,2802.384555 824.752120,2835.079192 828.043064,2852.043095 826.442718,2878.518236 838.296464,2895.561274 867.493342,2899.062513 876.853062,2907.917631 891.134180,2930.573683 894.184159,2960.338699 902.900526,2977.451571 904.532068,3007.541918 887.095572,3083.883193 895.409393,3096.452693 904.885540,3098.763000 933.205612,3090.080803 953.773915,3090.972467 959.090108,3109.028211 957.825804,3137.482748 934.260432,3164.235066 908.046596,3177.127957 656.151738,3158.334036 634.244953,3149.802976 626.164346,3135.228503 614.087794,3065.334748 626.971873,2956.434288 621.478955,2931.563767 611.861582,2901.679507 602.278663,2839.962580 621.920586,2749.635858 619.936940,2717.000058 575.497201,2576.603282 584.506271,2582.901497"/>
    <poly id="1074686411#1" type="forest" color="140,196,107" fill="1" layer="-4.00" shape="584.506271,2582.901497 613.595138,2681.355745 800.534242,2648.389518 826.756091,2647.147073 845.592299,2508.661193 903.312955,2511.583001 885.416170,2525.827547 861.600305,2570.779124 858.089132,2644.917763 842.019907,2741.115871 825.050694,2802.384555 824.752120,2835.079192 828.043064,2852.043095 826.442718,2878.518236 838.296464,2895.561274 867.493342,2899.062513 876.853062,2907.917631 891.134180,2930.573683 894.184159,2960.338699 902.900526,2977.451571 904.532068,3007.541918 887.095572,3083.883193 895.409393,3096.452693 904.885540,3098.763000 933.205612,3090.080803 953.773915,3090.972467 959.090108,3109.028211 957.825804,3137.482748 934.260432,3164.235066 908.046596,3177.127957 656.151738,3158.334036 634.244953,3149.802976 626.164346,3135.228503 614.087794,3065.334748 626.971873,2956.434288 621.478955,2931.563767 611.861582,2901.679507 602.278663,2839.962580 621.920586,2749.635858 619.936940,2717.000058 575.497201,2576.603282 584.506271,2582.901497"/>
    <poly id="1074686422" type="forest" color="140,196,107" fill="0" layer="-4.00" shape="2581.192013,2351.420801 2569.630951,2312.199277 2548.271019,2235.721509 2519.545585,2117.060712 2442.571246,1874.574138 2427.337787,1870.698714 2417.662679,1871.801295 2382.342646,1863.319480 2068.613863,1786.139599 2058.340393,1784.481310 2047.497473,1785.914132 2034.431242,1792.046460 1890.961570,1892.827738 1843.191282,1928.005315 1738.825004,2004.874185 1657.894131,2064.449817 1563.991814,2136.798850 1513.124880,2170.492132 1403.612987,2235.336347 1349.327050,2262.132597 1273.854911,2299.381203 1165.749099,2355.885067 1139.464473,2369.845027 1128.148637,2375.045397 1020.346815,2426.823254 1005.951684,2439.377966 970.126383,2491.502362 956.831179,2500.085982 947.032207,2502.726348 943.296127,2503.722237 771.783058,2494.859139 691.754681,2490.736602 678.447106,2491.790703 661.549666,2498.501885 567.064153,2562.804298 564.534382,2568.989382 564.267787,2578.092644 604.907753,2722.030505 604.690388,2741.084091 589.591587,2869.389570 590.090310,2915.513913 588.631194,2937.043033 580.993909,2976.169143 564.241289,3021.272739 543.669653,3071.173122 499.667431,3153.988037 483.848373,3199.378752 475.568642,3235.023010 468.763814,3277.215470 468.259539,3331.340412 464.620870,3369.230556 471.545273,3392.264735 476.040026,3399.234722 517.250380,3440.420325 533.893048,3462.770419 579.242523,3550.097766 587.905030,3549.041123"/>
    <poly id="1074921929" type="leisure" color="207,245,201" fill="0" layer="-2.00" shape="3491.651450,5063.516573 3071.510369,5004.741635 3075.556026,5036.591860 2848.172214,5130.915093 2847.387845,5127.958575 2590.564643,5246.576428 2534.193972,5272.597135 2520.075006,5252.899884 2565.651021,5231.697764 2521.929867,5128.070169 2460.847185,5170.305327 2455.897560,5163.357108 2521.182338,5118.448795 2531.737107,5080.249871 2441.348492,5143.082335 2397.180470,5081.516241 2399.367086,4997.405720 2533.132041,5012.108753 2527.710855,4973.885369 2543.602818,4935.805411 2363.497027,4873.030709 2321.898982,4739.384105 2329.175352,4739.275543 2316.673582,4547.796237 2318.760367,4461.144878 2320.409462,4442.488047 2311.365876,4380.000797 2307.662270,4251.892513 2308.069632,4152.989226 2143.174348,4659.918830 2096.495584,4617.288599 1896.774534,4803.992567"/>
    <poly id="1074921930" type="leisure" color="207,245,201" fill="0" layer="-2.00" shape="2553.342986,2467.007073 2848.527412,2927.507114 2989.025727,2934.695720"/>
    <poly id="1074921931" type="leisure" color="207,245,201" fill="0" layer="-2.00" shape="1896.774534,4803.992567 1882.019074,4793.275695 1865.669082,4781.400254 1804.502968,4741.575856 1738.217559,4726.973225 1716.486772,4708.916579 1691.456468,4695.354067 1592.280020,4536.267146 1555.957350,4476.591662 1536.040790,4452.135827 1287.718754,4206.623314 1264.395880,4183.910628 1203.491483,4109.553104 1158.641774,4058.039962 1127.124715,4018.656485 1104.159402,3997.445516 1065.635688,3964.329166 862.759140,3888.001247 833.722389,3873.133979 807.010088,3858.217969 769.033379,3824.933356 729.386656,3786.249712 647.118366,3691.488887 630.273658,3667.311204 603.908103,3616.634372 1359.097303,3234.033040 1826.274991,3002.133949 2115.955641,2857.875052 2553.342986,2467.007073"/>
    <poly id="1074921932" type="leisure" color="207,245,201" fill="0" layer="-2.00" shape="2488.622437,1843.087275 2474.335726,1782.533284 2409.489860,1792.309958 2339.217314,1777.236323 2320.241860,1836.697318"/>
    <poly id="1074921934" type="leisure" color="207,245,201" fill="0" layer="-2.00" shape="3148.339937,1602.635597 3143.523221,1604.690820 3139.862138,1605.939155 2898.258389,1738.489293 2488.622437,1843.087275"/>
    <poly id="1074921936" type="leisure" color="207,245,201" fill="0" layer="-2.00" shape="2397.668591,1855.252954 2420.220301,1860.551644 2488.622437,1843.087275"/>
    <poly id="1074921938" type="leisure" color="207,245,201" fill="0" layer="-2.00" shape="1290.673151,2284.176873 1130.330953,2366.092813 1025.492029,2415.062097 1014.991686,2421.030212 1003.267815,2430.528447 992.682343,2443.262737 978.787967,2464.512221 960.621773,2503.220371"/>
    <poly id="1074921939" type="leisure" color="207,245,201" fill="0" layer="-2.00" shape="1454.699930,2200.814753 1376.813195,1923.785106 1215.237698,2006.496785"/>
    <poly id="1074921940" type="leisure" color="207,245,201" fill="0" layer="-2.00" shape="1215.237698,2006.496785 1290.673151,2284.176873"/>
    <poly id="1074921941" type="leisure" color="207,245,201" fill="0" layer="-2.00" shape="1454.699930,2200.814753 1290.673151,2284.176873"/>
    <poly id="1074921942" type="leisure" color="207,245,201" fill="0" layer="-2.00" shape="2320.241860,1836.697318 2072.766398,1778.425261 2031.981011,1782.824159 1804.170921,1946.565493 1536.181407,2155.716789 1454.699930,2200.814753"/>
    <poly id="1074921943" type="leisure" color="207,245,201" fill="0" layer="-2.00" shape="2397.668591,1855.252954 2320.241860,1836.697318"/>
    <poly id="1074921944" type="leisure" color="207,245,201" fill="0" layer="-2.00" shape="2572.508273,2349.332543 2397.668591,1855.252954"/>
    <poly id="1074923478" type="leisure" color="207,245,201" fill="1" layer="-2.00" shape="3606.175396,2106.067719 3584.933837,2129.442479 3572.821650,2146.243431 3551.328322,2176.033099 3523.830617,2198.223253 3518.469048,2197.204537 3512.375000,2194.927216 3510.313692,2191.403373 3508.300542,2180.592497 3494.542660,2163.960696 3488.877873,2155.441772 3484.399338,2139.162610 3485.507871,2132.426138 3494.662104,2115.955720 3499.254631,2107.475783 3501.451349,2098.301546 3499.107162,2088.076624 3504.358417,2077.614103 3461.877939,2070.053805 3464.903083,2037.013002 3488.225460,2038.330086 3522.235986,2045.061917 3548.543390,2053.922268 3576.150849,2063.238334 3597.224515,2074.075564 3621.382803,2086.511511 3606.175396,2106.067719"/>
    <poly id="1074923478#1" type="sport" color="79,230,125" fill="1" layer="-2.00" shape="3606.175396,2106.067719 3584.933837,2129.442479 3572.821650,2146.243431 3551.328322,2176.033099 3523.830617,2198.223253 3518.469048,2197.204537 3512.375000,2194.927216 3510.313692,2191.403373 3508.300542,2180.592497 3494.542660,2163.960696 3488.877873,2155.441772 3484.399338,2139.162610 3485.507871,2132.426138 3494.662104,2115.955720 3499.254631,2107.475783 3501.451349,2098.301546 3499.107162,2088.076624 3504.358417,2077.614103 3461.877939,2070.053805 3464.903083,2037.013002 3488.225460,2038.330086 3522.235986,2045.061917 3548.543390,2053.922268 3576.150849,2063.238334 3597.224515,2074.075564 3621.382803,2086.511511 3606.175396,2106.067719"/>
    <poly id="1074923480" type="leisure" color="207,245,201" fill="1" layer="-2.00" shape="3751.598400,2315.815184 3705.303545,2359.551077 3673.947773,2377.596111 3662.663508,2384.091370 3640.492724,2382.788990 3564.782219,2388.178934 3523.939600,2369.126042 3466.555372,2330.413728 3526.766329,2262.654664 3540.276521,2247.450712 3574.277723,2205.214776 3691.160728,2286.563756 3696.183111,2283.426302 3751.598400,2315.815184"/>
    <poly id="1074923480#1" type="sport" color="79,230,125" fill="1" layer="-2.00" shape="3751.598400,2315.815184 3705.303545,2359.551077 3673.947773,2377.596111 3662.663508,2384.091370 3640.492724,2382.788990 3564.782219,2388.178934 3523.939600,2369.126042 3466.555372,2330.413728 3526.766329,2262.654664 3540.276521,2247.450712 3574.277723,2205.214776 3691.160728,2286.563756 3696.183111,2283.426302 3751.598400,2315.815184"/>
    <poly id="1074923481" type="leisure" color="207,245,201" fill="1" layer="-2.00" shape="3157.679760,1922.418668 3180.496337,1916.761797 3187.714416,1908.492449 3197.081182,1893.926563 3225.292919,1881.424128 3236.759026,1876.278623 3254.672923,1860.117970 3277.039181,1818.421385 3288.237993,1802.431787 3301.816510,1798.387680 3318.762189,1798.878163 3325.160410,1804.257413 3336.531365,1804.201231 3346.892648,1801.172027 3354.652543,1787.335851 3408.288723,1780.195702 3445.033622,1783.881184 3460.948957,1780.244386 3489.537185,1782.516013 3531.168491,1805.258392 3552.552609,1816.032119 3562.621900,1810.700495 3606.323965,1834.290225 3740.272844,1932.943357 3916.638481,2061.331039 3898.433134,2082.051144 3930.925847,2110.103056 3949.010332,2100.636853 3980.805885,2101.562670 4103.970786,2181.480991 4100.135772,2183.366361 4093.333660,2192.035216 4086.349952,2204.795826 4081.725613,2209.655516 4077.537699,2211.605379 4068.434444,2218.533386 4055.612199,2225.100370 4046.353606,2239.540251 4020.899379,2273.804920 3956.263074,2277.055316 3956.425185,2278.672734 3954.790469,2312.055568 3939.247260,2319.413723 3935.403406,2323.331872 3935.521585,2350.817169 3931.267249,2365.818803 3930.965861,2381.541984 3930.482381,2403.378299 3930.918069,2411.685922 3890.426122,2415.257106 3828.520960,2416.362404 3831.915226,2431.180990 3830.679339,2450.959542 3828.743006,2489.125858 3830.170916,2513.345963 3824.817523,2530.685718 3811.710154,2548.811042 3811.496505,2554.358561 3812.050112,2562.196724 3808.466088,2567.485543 3802.533849,2571.223576 3799.284459,2570.961808 3795.599663,2576.708556 3784.108065,2594.437492 3785.888430,2600.867301 3780.931658,2615.431530 3775.746348,2621.338575 3761.194074,2642.144032 3749.477071,2650.993634 3735.226140,2656.087033 3731.739790,2660.451581 3733.815555,2664.552636 3734.544291,2670.431622 3722.799070,2687.356345 3717.584521,2692.109112 3710.482601,2695.410477 3696.507634,2711.359011 3675.622461,2733.725003 3662.840091,2737.392920 3659.088054,2740.487021 3654.054143,2743.158344 3639.030006,2745.039620 3632.803755,2741.965930 3582.868277,2739.314956 3562.733766,2740.859856 3558.448728,2750.875757 3492.475126,2740.159035 3441.935947,2722.963776 3414.026225,2646.984067 3409.821219,2633.296887 3299.896166,2624.777676 3280.750877,2629.185771 3280.255668,2737.075309 3251.010739,2745.217023 3176.678518,2741.102037 3172.636153,2728.043883 3170.091866,2655.339199 3173.726477,2643.229405 3163.002121,2631.963051 3144.825621,2665.223593 3127.466800,2675.595144 3088.213938,2682.604214 3032.774019,2682.173923 3022.360053,2665.113366 3017.577154,2668.467308 3001.852312,2679.497191 2997.406442,2677.755787 2988.179814,2661.820064 2988.983754,2656.723903 2981.734375,2627.110117 2976.207965,2619.620914 2975.784199,2603.005330 2982.162331,2598.455608 2984.211190,2578.767112 2981.758492,2555.494964 2972.528745,2539.103965 2962.470472,2535.662043 2929.793087,2536.728792 2926.151312,2530.579853 2918.917011,2528.687491 2909.254134,2531.932753 2886.266754,2521.668210 2869.287140,2519.791313 2859.994290,2510.088142 2834.951340,2492.134977 2832.204551,2484.463859 2833.829677,2480.035322 2819.964502,2463.984912 2812.190698,2445.702133 2806.929478,2443.870573 2801.081339,2432.935572 2800.081503,2407.316216 2806.976662,2405.063308 2810.963278,2379.316682 2807.901109,2364.034571 2800.857108,2342.501185 2793.620697,2316.141394 2804.340232,2238.411174 2809.238262,2229.056677 2823.459768,2221.441193 2830.899066,2211.022275 2848.685234,2198.051403 2880.696039,2188.427214 2904.460243,2180.290770 2917.517952,2143.994931 2928.371405,2121.971625 2941.708757,2113.246068 2973.151291,2109.467674 2981.923570,2106.545111 2985.030632,2094.093284 2974.586846,2081.998101 2993.782980,2068.003165 3024.391509,2048.463977 3031.758812,2035.203862 3067.431262,1999.220388 3125.670369,1949.800806 3157.679760,1922.418668"/>
    <poly id="1074923481#1" type="sport" color="79,230,125" fill="1" layer="-2.00" shape="3157.679760,1922.418668 3180.496337,1916.761797 3187.714416,1908.492449 3197.081182,1893.926563 3225.292919,1881.424128 3236.759026,1876.278623 3254.672923,1860.117970 3277.039181,1818.421385 3288.237993,1802.431787 3301.816510,1798.387680 3318.762189,1798.878163 3325.160410,1804.257413 3336.531365,1804.201231 3346.892648,1801.172027 3354.652543,1787.335851 3408.288723,1780.195702 3445.033622,1783.881184 3460.948957,1780.244386 3489.537185,1782.516013 3531.168491,1805.258392 3552.552609,1816.032119 3562.621900,1810.700495 3606.323965,1834.290225 3740.272844,1932.943357 3916.638481,2061.331039 3898.433134,2082.051144 3930.925847,2110.103056 3949.010332,2100.636853 3980.805885,2101.562670 4103.970786,2181.480991 4100.135772,2183.366361 4093.333660,2192.035216 4086.349952,2204.795826 4081.725613,2209.655516 4077.537699,2211.605379 4068.434444,2218.533386 4055.612199,2225.100370 4046.353606,2239.540251 4020.899379,2273.804920 3956.263074,2277.055316 3956.425185,2278.672734 3954.790469,2312.055568 3939.247260,2319.413723 3935.403406,2323.331872 3935.521585,2350.817169 3931.267249,2365.818803 3930.965861,2381.541984 3930.482381,2403.378299 3930.918069,2411.685922 3890.426122,2415.257106 3828.520960,2416.362404 3831.915226,2431.180990 3830.679339,2450.959542 3828.743006,2489.125858 3830.170916,2513.345963 3824.817523,2530.685718 3811.710154,2548.811042 3811.496505,2554.358561 3812.050112,2562.196724 3808.466088,2567.485543 3802.533849,2571.223576 3799.284459,2570.961808 3795.599663,2576.708556 3784.108065,2594.437492 3785.888430,2600.867301 3780.931658,2615.431530 3775.746348,2621.338575 3761.194074,2642.144032 3749.477071,2650.993634 3735.226140,2656.087033 3731.739790,2660.451581 3733.815555,2664.552636 3734.544291,2670.431622 3722.799070,2687.356345 3717.584521,2692.109112 3710.482601,2695.410477 3696.507634,2711.359011 3675.622461,2733.725003 3662.840091,2737.392920 3659.088054,2740.487021 3654.054143,2743.158344 3639.030006,2745.039620 3632.803755,2741.965930 3582.868277,2739.314956 3562.733766,2740.859856 3558.448728,2750.875757 3492.475126,2740.159035 3441.935947,2722.963776 3414.026225,2646.984067 3409.821219,2633.296887 3299.896166,2624.777676 3280.750877,2629.185771 3280.255668,2737.075309 3251.010739,2745.217023 3176.678518,2741.102037 3172.636153,2728.043883 3170.091866,2655.339199 3173.726477,2643.229405 3163.002121,2631.963051 3144.825621,2665.223593 3127.466800,2675.595144 3088.213938,2682.604214 3032.774019,2682.173923 3022.360053,2665.113366 3017.577154,2668.467308 3001.852312,2679.497191 2997.406442,2677.755787 2988.179814,2661.820064 2988.983754,2656.723903 2981.734375,2627.110117 2976.207965,2619.620914 2975.784199,2603.005330 2982.162331,2598.455608 2984.211190,2578.767112 2981.758492,2555.494964 2972.528745,2539.103965 2962.470472,2535.662043 2929.793087,2536.728792 2926.151312,2530.579853 2918.917011,2528.687491 2909.254134,2531.932753 2886.266754,2521.668210 2869.287140,2519.791313 2859.994290,2510.088142 2834.951340,2492.134977 2832.204551,2484.463859 2833.829677,2480.035322 2819.964502,2463.984912 2812.190698,2445.702133 2806.929478,2443.870573 2801.081339,2432.935572 2800.081503,2407.316216 2806.976662,2405.063308 2810.963278,2379.316682 2807.901109,2364.034571 2800.857108,2342.501185 2793.620697,2316.141394 2804.340232,2238.411174 2809.238262,2229.056677 2823.459768,2221.441193 2830.899066,2211.022275 2848.685234,2198.051403 2880.696039,2188.427214 2904.460243,2180.290770 2917.517952,2143.994931 2928.371405,2121.971625 2941.708757,2113.246068 2973.151291,2109.467674 2981.923570,2106.545111 2985.030632,2094.093284 2974.586846,2081.998101 2993.782980,2068.003165 3024.391509,2048.463977 3031.758812,2035.203862 3067.431262,1999.220388 3125.670369,1949.800806 3157.679760,1922.418668"/>