<?xml version="1.0" encoding="UTF-8"?>

<!-- generated on 2023-12-13 19:01:29 by Eclipse SUMO jtrrouter Version 1.19.0
<configuration xmlns:xsi="http://www.w3.org/2001/XMLSchema-instance" xsi:noNamespaceSchemaLocation="http://sumo.dlr.de/xsd/jtrrouterConfiguration.xsd">

    <input>
        <net-file value="C:\Users\ricca\OneDrive\OneDrive - CUHK-Shenzhen\RA_419\UAV_Path_planing\code\UAV-main\aircraft-main\sumo_envs\OSM\./test_env/rectangle.net.xml"/>
        <route-files value="C:\Users\ricca\OneDrive\OneDrive - CUHK-Shenzhen\RA_419\UAV_Path_planing\code\UAV-main\aircraft-main\sumo_envs\OSM\./test_env/testflow.trip.xml"/>
        <turn-ratio-files value="C:\Users\ricca\OneDrive\OneDrive - CUHK-Shenzhen\RA_419\UAV_Path_planing\code\UAV-main\aircraft-main\sumo_envs\OSM\./test_env/testflow.turndefs.xml"/>
    </input>

    <output>
        <output-file value="C:\Users\ricca\OneDrive\OneDrive - CUHK-Shenzhen\RA_419\UAV_Path_planing\code\UAV-main\aircraft-main\sumo_envs\OSM\./test_env/osm.rou.xml"/>
    </output>

    <processing>
        <randomize-flows value="True"/>
        <accept-all-destinations value="True"/>
    </processing>

    <defaults>
        <departlane value="random"/>
    </defaults>

    <report>
        <no-warnings value="true"/>
    </report>

    <random_number>
        <seed value="777"/>
    </random_number>

</configuration>
-->

<routes xmlns:xsi="http://www.w3.org/2001/XMLSchema-instance" xsi:noNamespaceSchemaLocation="http://sumo.dlr.de/xsd/routes_file.xsd">
    <vType id="background" length="7.00" maxSpeed="3.00" color="155,89,182" tau="1.0"/>
    <vehicle id="E8__0__background.0" type="background" depart="10.88" departLane="random">
        <route edges="E8 E9"/>
    </vehicle>
    <vehicle id="E8__0__background.1" type="background" depart="15.93" departLane="random">
        <route edges="E8 E9"/>
    </vehicle>
    <vehicle id="E8__0__background.2" type="background" depart="26.70" departLane="random">
        <route edges="E8 E9"/>
    </vehicle>
    <vehicle id="E8__0__background.3" type="background" depart="28.79" departLane="random">
        <route edges="E8 E9"/>
    </vehicle>
    <vehicle id="E8__0__background.4" type="background" depart="36.79" departLane="random">
        <route edges="E8 E9"/>
    </vehicle>
    <vehicle id="E8__0__background.5" type="background" depart="40.54" departLane="random">
        <route edges="E8 E9"/>
    </vehicle>
    <vehicle id="E8__0__background.6" type="background" depart="44.46" departLane="random">
        <route edges="E8 E9"/>
    </vehicle>
    <vehicle id="E8__0__background.7" type="background" depart="47.92" departLane="random">
        <route edges="E8 E9"/>
    </vehicle>
    <vehicle id="E8__0__background.8" type="background" depart="52.13" departLane="random">
        <route edges="E8 E9"/>
    </vehicle>
    <vehicle id="E8__0__background.9" type="background" depart="54.94" departLane="random">
        <route edges="E8 E9"/>
    </vehicle>
    <vehicle id="E12__6__background.0" type="background" depart="360.84" departLane="random">
        <route edges="E12 E16 E17"/>
    </vehicle>
    <vehicle id="E8__6__background.0" type="background" depart="363.58" departLane="random">
        <route edges="E8 E9"/>
    </vehicle>
    <vehicle id="E12__6__background.1" type="background" depart="364.16" departLane="random">
        <route edges="E12 E16 E17"/>
    </vehicle>
    <vehicle id="E12__6__background.2" type="background" depart="365.68" departLane="random">
        <route edges="E12 E16 E17"/>
    </vehicle>
    <vehicle id="E12__6__background.3" type="background" depart="365.99" departLane="random">
        <route edges="E12 E15"/>
    </vehicle>
    <vehicle id="E12__6__background.4" type="background" depart="367.71" departLane="random">
        <route edges="E12 E15"/>
    </vehicle>
    <vehicle id="E12__6__background.5" type="background" depart="367.95" departLane="random">
        <route edges="E12 E16 E17"/>
    </vehicle>
    <vehicle id="E12__6__background.6" type="background" depart="370.82" departLane="random">
        <route edges="E12 E15"/>
    </vehicle>
    <vehicle id="E8__6__background.1" type="background" depart="371.03" departLane="random">
        <route edges="E8 E9"/>
    </vehicle>
    <vehicle id="E12__6__background.7" type="background" depart="375.68" departLane="random">
        <route edges="E12 E16 E17"/>
    </vehicle>
    <vehicle id="E12__6__background.8" type="background" depart="376.75" departLane="random">
        <route edges="E12 E16 E17"/>
    </vehicle>
    <vehicle id="E8__6__background.2" type="background" depart="377.37" departLane="random">
        <route edges="E8 E9"/>
    </vehicle>
    <vehicle id="E12__6__background.9" type="background" depart="383.35" departLane="random">
        <route edges="E12 E15"/>
    </vehicle>
    <vehicle id="E12__6__background.10" type="background" depart="388.29" departLane="random">
        <route edges="E12 E16 E17"/>
    </vehicle>
    <vehicle id="E12__6__background.11" type="background" depart="393.66" departLane="random">
        <route edges="E12 E16 E17"/>
    </vehicle>
    <vehicle id="E12__6__background.12" type="background" depart="395.91" departLane="random">
        <route edges="E12 E16 E17"/>
    </vehicle>
    <vehicle id="E12__6__background.13" type="background" depart="403.19" departLane="random">
        <route edges="E12 E16 E17"/>
    </vehicle>
    <vehicle id="E12__6__background.14" type="background" depart="406.02" departLane="random">
        <route edges="E12 E15"/>
    </vehicle>
    <vehicle id="E12__6__background.15" type="background" depart="406.02" departLane="random">
        <route edges="E12 E15"/>
    </vehicle>
    <vehicle id="E12__6__background.16" type="background" depart="408.23" departLane="random">
        <route edges="E12 E16 E17"/>
    </vehicle>
    <vehicle id="E12__6__background.17" type="background" depart="411.52" departLane="random">
        <route edges="E12 E15"/>
    </vehicle>
    <vehicle id="E12__6__background.18" type="background" depart="413.45" departLane="random">
        <route edges="E12 E15"/>
    </vehicle>
    <vehicle id="E12__6__background.19" type="background" depart="416.15" departLane="random">
        <route edges="E12 E15"/>
    </vehicle>
    <vehicle id="E12__7__background.0" type="background" depart="421.72" departLane="random">
        <route edges="E12 E15"/>
    </vehicle>
    <vehicle id="E12__7__background.1" type="background" depart="423.43" departLane="random">
        <route edges="E12 E16 E17"/>
    </vehicle>
    <vehicle id="E12__7__background.2" type="background" depart="423.47" departLane="random">
        <route edges="E12 E15"/>
    </vehicle>
    <vehicle id="E12__7__background.3" type="background" depart="430.17" departLane="random">
        <route edges="E12 E15"/>
    </vehicle>
    <vehicle id="E12__7__background.4" type="background" depart="432.29" departLane="random">
        <route edges="E12 E16 E17"/>
    </vehicle>
    <vehicle id="E12__7__background.5" type="background" depart="432.41" departLane="random">
        <route edges="E12 E15"/>
    </vehicle>
    <vehicle id="E12__7__background.6" type="background" depart="433.67" departLane="random">
        <route edges="E12 E16 E17"/>
    </vehicle>
    <vehicle id="E12__7__background.7" type="background" depart="434.01" departLane="random">
        <route edges="E12 E15"/>
    </vehicle>
    <vehicle id="E12__7__background.8" type="background" depart="436.73" departLane="random">
        <route edges="E12 E15"/>
    </vehicle>
    <vehicle id="E12__7__background.9" type="background" depart="440.50" departLane="random">
        <route edges="E12 E15"/>
    </vehicle>
    <vehicle id="E12__7__background.10" type="background" depart="443.16" departLane="random">
        <route edges="E12 E15"/>
    </vehicle>
    <vehicle id="E8__7__background.0" type="background" depart="445.22" departLane="random">
        <route edges="E8 E9"/>
    </vehicle>
    <vehicle id="E12__7__background.11" type="background" depart="445.86" departLane="random">
        <route edges="E12 E16 E17"/>
    </vehicle>
    <vehicle id="E12__7__background.12" type="background" depart="447.35" departLane="random">
        <route edges="E12 E15"/>
    </vehicle>
    <vehicle id="E8__7__background.1" type="background" depart="451.08" departLane="random">
        <route edges="E8 E9"/>
    </vehicle>
    <vehicle id="E12__7__background.13" type="background" depart="455.70" departLane="random">
        <route edges="E12 E15"/>
    </vehicle>
    <vehicle id="E12__7__background.14" type="background" depart="457.85" departLane="random">
        <route edges="E12 E15"/>
    </vehicle>
    <vehicle id="E12__7__background.15" type="background" depart="464.98" departLane="random">
        <route edges="E12 E15"/>
    </vehicle>
    <vehicle id="E12__7__background.16" type="background" depart="467.92" departLane="random">
        <route edges="E12 E15"/>
    </vehicle>
    <vehicle id="E8__7__background.2" type="background" depart="468.14" departLane="random">
        <route edges="E8 E9"/>
    </vehicle>
    <vehicle id="E12__7__background.17" type="background" depart="470.44" departLane="random">
        <route edges="E12 E16 E17"/>
    </vehicle>
    <vehicle id="E12__7__background.18" type="background" depart="470.49" departLane="random">
        <route edges="E12 E16 E17"/>
    </vehicle>
    <vehicle id="E12__7__background.19" type="background" depart="472.24" departLane="random">
        <route edges="E12 E15"/>
    </vehicle>
</routes>
