<?xml version="1.0" encoding="UTF-8"?>

<!-- generated on 2023-12-13 18:46:41 by Eclipse SUMO netedit Version 1.19.0
<configuration xmlns:xsi="http://www.w3.org/2001/XMLSchema-instance" xsi:noNamespaceSchemaLocation="http://sumo.dlr.de/xsd/neteditConfiguration.xsd">

    <input>
        <sumo-net-file value="C:\Users\ricca\OneDrive\OneDrive - CUHK-Shenzhen\RA_419\UAV_Path_planing\code\UAV-main\aircraft-main\sumo_envs\OSM\test_env\rectangle.net.xml"/>
    </input>

    <output>
        <output-file value="C:\Users\ricca\OneDrive\OneDrive - CUHK-Shenzhen\RA_419\UAV_Path_planing\code\UAV-main\aircraft-main\sumo_envs\OSM\test_env\rectangle.net.xml"/>
    </output>

    <processing>
        <geometry.min-radius.fix.railways value="false"/>
        <geometry.max-grade.fix value="false"/>
        <offset.disable-normalization value="true"/>
        <lefthand value="0"/>
    </processing>

    <junctions>
        <no-turnarounds value="true"/>
        <junctions.corner-detail value="5"/>
        <junctions.limit-turn-speed value="5.50"/>
        <rectangular-lane-cut value="0"/>
    </junctions>

    <pedestrian>
        <walkingareas value="0"/>
    </pedestrian>

</configuration>
-->

<net version="1.16" junctionCornerDetail="5" limitTurnSpeed="5.50" xmlns:xsi="http://www.w3.org/2001/XMLSchema-instance" xsi:noNamespaceSchemaLocation="http://sumo.dlr.de/xsd/net_file.xsd">

    <location netOffset="0.00,0.00" convBoundary="-10.39,-307.46,585.86,-73.42" origBoundary="-10000000000.00,-10000000000.00,10000000000.00,10000000000.00" projParameter="!"/>

    <edge id=":J12_0" function="internal">
        <lane id=":J12_0_0" index="0" speed="13.64" length="9.16" shape="287.98,-208.36 290.60,-208.57 292.30,-209.28 293.89,-210.42 296.18,-211.92"/>
    </edge>
    <edge id=":J12_1" function="internal">
        <lane id=":J12_1_0" index="0" speed="13.89" length="9.15" shape="287.98,-208.36 297.13,-208.15"/>
    </edge>
    <edge id=":J13_0" function="internal">
        <lane id=":J13_0_0" index="0" speed="13.89" length="0.80" shape="494.17,-203.29 494.40,-203.29 494.57,-203.31 494.72,-203.36 494.94,-203.46"/>
    </edge>
    <edge id=":J7_0" function="internal">
        <lane id=":J7_0_0" index="0" speed="4.01" length="1.72" shape="488.95,-75.19 489.39,-75.24 489.77,-75.40 490.09,-75.66 490.35,-76.02"/>
    </edge>

    <edge id="E12" from="J9" to="J12" priority="-1">
        <lane id="E12_0" index="0" speed="13.89" length="298.39" shape="-10.36,-213.39 287.98,-208.36"/>
    </edge>
    <edge id="E15" from="J12" to="J11" priority="-1">
        <lane id="E15_0" index="0" speed="13.89" length="194.33" shape="296.18,-211.92 464.61,-308.85"/>
    </edge>
    <edge id="E16" from="J12" to="J13" priority="-1">
        <lane id="E16_0" index="0" speed="13.89" length="197.09" shape="297.13,-208.15 494.17,-203.29"/>
    </edge>
    <edge id="E17" from="J13" to="J8" priority="-1">
        <lane id="E17_0" index="0" speed="13.89" length="94.13" shape="494.94,-203.46 578.75,-246.31"/>
    </edge>
    <edge id="E8" from="J0" to="J7" priority="-1">
        <lane id="E8_0" index="0" speed="13.89" length="399.08" shape="89.87,-75.02 488.95,-75.19"/>
    </edge>
    <edge id="E9" from="J7" to="J8" priority="-1">
        <lane id="E9_0" index="0" speed="13.89" length="190.66" shape="490.35,-76.02 581.50,-243.49"/>
    </edge>

    <junction id="J0" type="dead_end" x="89.87" y="-73.42" incLanes="" intLanes="" shape="89.87,-73.42 89.87,-76.62"/>
    <junction id="J11" type="dead_end" x="465.41" y="-307.46" incLanes="E15_0" intLanes="" shape="463.81,-310.23 465.41,-307.46"/>
    <junction id="J12" type="priority" x="290.34" y="-206.72" incLanes="E12_0" intLanes=":J12_0_0 :J12_1_0" shape="297.09,-206.55 297.17,-209.75 296.97,-210.54 295.38,-213.31 292.81,-211.53 291.90,-210.85 290.94,-210.35 289.72,-210.04 288.01,-209.96 287.96,-206.76">
        <request index="0" response="00" foes="00" cont="0"/>
        <request index="1" response="00" foes="00" cont="0"/>
    </junction>
    <junction id="J13" type="priority" x="494.94" y="-201.67" incLanes="E16_0" intLanes=":J13_0_0" shape="495.66,-202.04 494.21,-204.89 494.13,-201.69 494.72,-201.69 494.93,-201.72 495.13,-201.79 495.36,-201.89">
        <request index="0" response="0" foes="0" cont="0"/>
    </junction>
    <junction id="J7" type="priority" x="490.85" y="-73.59" incLanes="E8_0" intLanes=":J7_0_0" shape="491.76,-75.26 488.95,-76.79 488.95,-73.59 490.11,-73.77 490.60,-74.01 491.04,-74.33 491.43,-74.75">
        <request index="0" response="0" foes="0" cont="0"/>
    </junction>
    <junction id="J8" type="dead_end" x="585.86" y="-248.15" incLanes="E17_0 E9_0" intLanes="" shape="578.02,-247.74 579.48,-244.89 580.14,-245.12 580.30,-245.07 580.35,-244.91 580.28,-244.64 580.10,-244.25 582.91,-242.72 584.34,-245.75 584.88,-247.90 584.52,-249.18 583.25,-249.58 581.09,-249.09"/>
    <junction id="J9" type="dead_end" x="-10.39" y="-211.79" incLanes="" intLanes="" shape="-10.39,-211.79 -10.34,-214.99"/>

    <connection from="E12" to="E15" fromLane="0" toLane="0" via=":J12_0_0" dir="R" state="M"/>
    <connection from="E12" to="E16" fromLane="0" toLane="0" via=":J12_1_0" dir="s" state="M"/>
    <connection from="E16" to="E17" fromLane="0" toLane="0" via=":J13_0_0" dir="s" state="M"/>
    <connection from="E8" to="E9" fromLane="0" toLane="0" via=":J7_0_0" dir="r" state="M"/>

    <connection from=":J12_0" to="E15" fromLane="0" toLane="0" dir="R" state="M"/>
    <connection from=":J12_1" to="E16" fromLane="0" toLane="0" dir="s" state="M"/>
    <connection from=":J13_0" to="E17" fromLane="0" toLane="0" dir="s" state="M"/>
    <connection from=":J7_0" to="E9" fromLane="0" toLane="0" dir="r" state="M"/>

</net>
