<?xml version="1.0" ?>
<configuration xmlns:xsi="http://www.w3.org/2001/XMLSchema-instance" xsi:noNamespaceSchemaLocation="http://sumo.dlr.de/xsd/sumoConfiguration.xsd">
   <input>
      <net-file value="US_UAM.net.xml"/>
      <additional-files value="./US_UAM.poly.xml"/>
   </input>
</configuration>