<?xml version="1.0" encoding="UTF-8"?>

<!-- generated on 2024-07-30 00:16:44 by Eclipse SUMO polyconvert Version 1.19.0
<configuration xmlns:xsi="http://www.w3.org/2001/XMLSchema-instance" xsi:noNamespaceSchemaLocation="http://sumo.dlr.de/xsd/polyconvertConfiguration.xsd">

    <input>
        <net-file value="E:\OneDrive%20-%20CUHK-Shenzhen\RA_419\UAV_Path_planing\code\map_dataset\US_UAM_filter13\US_UAM_filter13.net.xml"/>
        <osm-files value="E:\OneDrive%20-%20CUHK-Shenzhen\RA_419\UAV_Path_planing\code\map_dataset\US_UAM\US_UAM_filter13.osm"/>
        <osm.merge-relations value="1"/>
        <type-file value="D:\ProgramData\Anaconda3\envs\trans\lib\site-packages\tshub\sumo_tools\./osm_build_type/poly.typ.xml"/>
    </input>

    <output>
        <output-file value="E:\OneDrive%20-%20CUHK-Shenzhen\RA_419\UAV_Path_planing\code\map_dataset\US_UAM_filter13\US_UAM_filter13.poly.xml"/>
    </output>

    <building_defaults>
        <discard value="true"/>
    </building_defaults>

</configuration>
-->

<additional xmlns:xsi="http://www.w3.org/2001/XMLSchema-instance" xsi:noNamespaceSchemaLocation="http://sumo.dlr.de/xsd/additional_file.xsd">
    <location netOffset="-298286.93,-4335480.55" convBoundary="-1107.38,-269.65,3714.86,4329.87" origBoundary="-77.348048,39.143401,-77.291196,39.184078" projParameter="+proj=utm +zone=18 +ellps=WGS84 +datum=WGS84 +units=m +no_defs"/>

    <poly id="1057654233" type="natural" color="140,196,107" fill="0" layer="-4.00" shape="2059.402597,2890.872623 2039.393839,3421.684716"/>
    <poly id="1057659964" type="natural" color="140,196,107" fill="1" layer="-4.00" shape="2143.207236,3246.298913 2164.505431,3244.834318 2190.582018,3225.299949 2165.419817,3184.369508 2164.300144,3213.030565 2143.207236,3246.298913"/>
    <poly id="1057659965" type="natural" color="140,196,107" fill="1" layer="-4.00" shape="2078.045965,3309.856331 2085.631703,3316.126927 2120.077056,3284.761563 2143.207236,3246.298913 2110.491430,3200.030105 2110.060985,3219.433014 2070.161003,3218.606450 2089.492426,3249.522805 2092.933228,3275.302122 2078.045965,3309.856331"/>
    <poly id="1064982706" type="parking" color="184,184,179" fill="1" layer="-1.00" shape="3067.006952,1862.854651 3054.283861,1882.457946 3054.551270,1888.570782 3052.276201,1892.959962 3079.333172,1910.121851 3083.596401,1904.349506 3088.631889,1906.187666 3101.018196,1887.281562 3083.248089,1879.357875 3085.966505,1874.379934 3067.006952,1862.854651"/>
    <poly id="1074921929" type="leisure" color="207,245,201" fill="0" layer="-2.00" shape="2365.841450,3465.456573 1945.700369,3406.681635 1949.746026,3438.531860 1722.362214,3532.855093 1721.577845,3529.898575 1464.754643,3648.516428 1408.383972,3674.537135 1394.265006,3654.839884 1439.841021,3633.637764 1396.119867,3530.010169 1335.037185,3572.245327 1330.087560,3565.297108 1395.372338,3520.388795 1405.927107,3482.189871 1315.538492,3545.022335 1271.370470,3483.456241 1273.557086,3399.345720 1407.322041,3414.048753 1401.900855,3375.825369 1417.792818,3337.745411 1237.687027,3274.970709 1196.088982,3141.324105 1203.365352,3141.215543 1190.863582,2949.736237 1192.950367,2863.084878 1194.599462,2844.428047 1185.555876,2781.940797 1181.852270,2653.832513 1182.259632,2554.929226 1017.364348,3061.858830 970.685584,3019.228599 770.964534,3205.932567"/>
    <poly id="1074921930" type="leisure" color="207,245,201" fill="0" layer="-2.00" shape="1427.532986,868.947073 1722.717412,1329.447114 1863.215727,1336.635720"/>
    <poly id="1074921931" type="leisure" color="207,245,201" fill="0" layer="-2.00" shape="770.964534,3205.932567 756.209074,3195.215695 739.859082,3183.340254 678.692968,3143.515856 612.407559,3128.913225 590.676772,3110.856579 565.646468,3097.294067 466.470020,2938.207146 430.147350,2878.531662 410.230790,2854.075827 161.908754,2608.563314 138.585880,2585.850628 77.681483,2511.493104 32.831774,2459.979962 1.314715,2420.596485 -21.650598,2399.385516 -60.174312,2366.269166 -263.050860,2289.941247 -292.087611,2275.073979 -318.799912,2260.157969 -356.776621,2226.873356 -396.423344,2188.189712 -478.691634,2093.428887 -495.536342,2069.251204 -521.901897,2018.574372 233.287303,1635.973040 700.464991,1404.073949 990.145641,1259.815052 1427.532986,868.947073"/>
    <poly id="1074921932" type="leisure" color="207,245,201" fill="0" layer="-2.00" shape="1362.812437,245.027275 1348.525726,184.473284 1283.679860,194.249958 1213.407314,179.176323 1194.431860,238.637318"/>
    <poly id="1074921934" type="leisure" color="207,245,201" fill="0" layer="-2.00" shape="2022.529937,4.575597 2017.713221,6.630820 2014.052138,7.879155 1772.448389,140.429293 1362.812437,245.027275"/>
    <poly id="1074921936" type="leisure" color="207,245,201" fill="0" layer="-2.00" shape="1271.858591,257.192954 1294.410301,262.491644 1362.812437,245.027275"/>
    <poly id="1074921938" type="leisure" color="207,245,201" fill="0" layer="-2.00" shape="164.863151,686.116873 4.520953,768.032813 -100.317971,817.002097 -110.818314,822.970212 -122.542185,832.468447 -133.127657,845.202737 -147.022033,866.452221 -165.188227,905.160371"/>
    <poly id="1074921939" type="leisure" color="207,245,201" fill="0" layer="-2.00" shape="328.889930,602.754753 251.003195,325.725106 89.427698,408.436785"/>
    <poly id="1074921940" type="leisure" color="207,245,201" fill="0" layer="-2.00" shape="89.427698,408.436785 164.863151,686.116873"/>
    <poly id="1074921941" type="leisure" color="207,245,201" fill="0" layer="-2.00" shape="328.889930,602.754753 164.863151,686.116873"/>
    <poly id="1074921942" type="leisure" color="207,245,201" fill="0" layer="-2.00" shape="1194.431860,238.637318 946.956398,180.365261 906.171011,184.764159 678.360921,348.505493 410.371407,557.656789 328.889930,602.754753"/>
    <poly id="1074921943" type="leisure" color="207,245,201" fill="0" layer="-2.00" shape="1271.858591,257.192954 1194.431860,238.637318"/>
    <poly id="1074921944" type="leisure" color="207,245,201" fill="0" layer="-2.00" shape="1446.698273,751.272543 1271.858591,257.192954"/>
    <poly id="1074923478" type="leisure" color="207,245,201" fill="1" layer="-2.00" shape="2480.365396,508.007719 2459.123837,531.382479 2447.011650,548.183431 2425.518322,577.973099 2398.020617,600.163253 2392.659048,599.144537 2386.565000,596.867216 2384.503692,593.343373 2382.490542,582.532497 2368.732660,565.900696 2363.067873,557.381772 2358.589338,541.102610 2359.697871,534.366138 2368.852104,517.895720 2373.444631,509.415783 2375.641349,500.241546 2373.297162,490.016624 2378.548417,479.554103 2336.067939,471.993805 2339.093083,438.953002 2362.415460,440.270086 2396.425986,447.001917 2422.733390,455.862268 2450.340849,465.178334 2471.414515,476.015564 2495.572803,488.451511 2480.365396,508.007719"/>
    <poly id="1074923478#1" type="sport" color="79,230,125" fill="1" layer="-2.00" shape="2480.365396,508.007719 2459.123837,531.382479 2447.011650,548.183431 2425.518322,577.973099 2398.020617,600.163253 2392.659048,599.144537 2386.565000,596.867216 2384.503692,593.343373 2382.490542,582.532497 2368.732660,565.900696 2363.067873,557.381772 2358.589338,541.102610 2359.697871,534.366138 2368.852104,517.895720 2373.444631,509.415783 2375.641349,500.241546 2373.297162,490.016624 2378.548417,479.554103 2336.067939,471.993805 2339.093083,438.953002 2362.415460,440.270086 2396.425986,447.001917 2422.733390,455.862268 2450.340849,465.178334 2471.414515,476.015564 2495.572803,488.451511 2480.365396,508.007719"/>
    <poly id="1074923480" type="leisure" color="207,245,201" fill="1" layer="-2.00" shape="2625.788400,717.755184 2579.493545,761.491077 2548.137773,779.536111 2536.853508,786.031370 2514.682724,784.728990 2438.972219,790.118934 2398.129600,771.066042 2340.745372,732.353728 2400.956329,664.594664 2414.466521,649.390712 2448.467723,607.154776 2565.350728,688.503756 2570.373111,685.366302 2625.788400,717.755184"/>
    <poly id="1074923480#1" type="sport" color="79,230,125" fill="1" layer="-2.00" shape="2625.788400,717.755184 2579.493545,761.491077 2548.137773,779.536111 2536.853508,786.031370 2514.682724,784.728990 2438.972219,790.118934 2398.129600,771.066042 2340.745372,732.353728 2400.956329,664.594664 2414.466521,649.390712 2448.467723,607.154776 2565.350728,688.503756 2570.373111,685.366302 2625.788400,717.755184"/>
    <poly id="1074923481" type="leisure" color="207,245,201" fill="1" layer="-2.00" shape="2031.869760,324.358668 2054.686337,318.701797 2061.904416,310.432449 2071.271182,295.866563 2099.482919,283.364128 2110.949026,278.218623 2128.862923,262.057970 2151.229181,220.361385 2162.427993,204.371787 2176.006510,200.327680 2192.952189,200.818163 2199.350410,206.197413 2210.721365,206.141231 2221.082648,203.112027 2228.842543,189.275851 2282.478723,182.135702 2319.223622,185.821184 2335.138957,182.184386 2363.727185,184.456013 2405.358491,207.198392 2426.742609,217.972119 2436.811900,212.640495 2480.513965,236.230225 2614.462844,334.883357 2790.828481,463.271039 2772.623134,483.991144 2805.115847,512.043056 2823.200332,502.576853 2854.995885,503.502670 2978.160786,583.420991 2974.325772,585.306361 2967.523660,593.975216 2960.539952,606.735826 2955.915613,611.595516 2951.727699,613.545379 2942.624444,620.473386 2929.802199,627.040370 2920.543606,641.480251 2895.089379,675.744920 2830.453074,678.995316 2830.615185,680.612734 2828.980469,713.995568 2813.437260,721.353723 2809.593406,725.271872 2809.711585,752.757169 2805.457249,767.758803 2805.155861,783.481984 2804.672381,805.318299 2805.108069,813.625922 2764.616122,817.197106 2702.710960,818.302404 2706.105226,833.120990 2704.869339,852.899542 2702.933006,891.065858 2704.360916,915.285963 2699.007523,932.625718 2685.900154,950.751042 2685.686505,956.298561 2686.240112,964.136724 2682.656088,969.425543 2676.723849,973.163576 2673.474459,972.901808 2669.789663,978.648556 2658.298065,996.377492 2660.078430,1002.807301 2655.121658,1017.371530 2649.936348,1023.278575 2635.384074,1044.084032 2623.667071,1052.933634 2609.416140,1058.027033 2605.929790,1062.391581 2608.005555,1066.492636 2608.734291,1072.371622 2596.989070,1089.296345 2591.774521,1094.049112 2584.672601,1097.350477 2570.697634,1113.299011 2549.812461,1135.665003 2537.030091,1139.332920 2533.278054,1142.427021 2528.244143,1145.098344 2513.220006,1146.979620 2506.993755,1143.905930 2457.058277,1141.254956 2436.923766,1142.799856 2432.638728,1152.815757 2366.665126,1142.099035 2316.125947,1124.903776 2288.216225,1048.924067 2284.011219,1035.236887 2174.086166,1026.717676 2154.940877,1031.125771 2154.445668,1139.015309 2125.200739,1147.157023 2050.868518,1143.042037 2046.826153,1129.983883 2044.281866,1057.279199 2047.916477,1045.169405 2037.192121,1033.903051 2019.015621,1067.163593 2001.656800,1077.535144 1962.403938,1084.544214 1906.964019,1084.113923 1896.550053,1067.053366 1891.767154,1070.407308 1876.042312,1081.437191 1871.596442,1079.695787 1862.369814,1063.760064 1863.173754,1058.663903 1855.924375,1029.050117 1850.397965,1021.560914 1849.974199,1004.945330 1856.352331,1000.395608 1858.401190,980.707112 1855.948492,957.434964 1846.718745,941.043965 1836.660472,937.602043 1803.983087,938.668792 1800.341312,932.519853 1793.107011,930.627491 1783.444134,933.872753 1760.456754,923.608210 1743.477140,921.731313 1734.184290,912.028142 1709.141340,894.074977 1706.394551,886.403859 1708.019677,881.975322 1694.154502,865.924912 1686.380698,847.642133 1681.119478,845.810573 1675.271339,834.875572 1674.271503,809.256216 1681.166662,807.003308 1685.153278,781.256682 1682.091109,765.974571 1675.047108,744.441185 1667.810697,718.081394 1678.530232,640.351174 1683.428262,630.996677 1697.649768,623.381193 1705.089066,612.962275 1722.875234,599.991403 1754.886039,590.367214 1778.650243,582.230770 1791.707952,545.934931 1802.561405,523.911625 1815.898757,515.186068 1847.341291,511.407674 1856.113570,508.485111 1859.220632,496.033284 1848.776846,483.938101 1867.972980,469.943165 1898.581509,450.403977 1905.948812,437.143862 1941.621262,401.160388 1999.860369,351.740806 2031.869760,324.358668"/>
    <poly id="1074923481#1" type="sport" color="79,230,125" fill="1" layer="-2.00" shape="2031.869760,324.358668 2054.686337,318.701797 2061.904416,310.432449 2071.271182,295.866563 2099.482919,283.364128 2110.949026,278.218623 2128.862923,262.057970 2151.229181,220.361385 2162.427993,204.371787 2176.006510,200.327680 2192.952189,200.818163 2199.350410,206.197413 2210.721365,206.141231 2221.082648,203.112027 2228.842543,189.275851 2282.478723,182.135702 2319.223622,185.821184 2335.138957,182.184386 2363.727185,184.456013 2405.358491,207.198392 2426.742609,217.972119 2436.811900,212.640495 2480.513965,236.230225 2614.462844,334.883357 2790.828481,463.271039 2772.623134,483.991144 2805.115847,512.043056 2823.200332,502.576853 2854.995885,503.502670 2978.160786,583.420991 2974.325772,585.306361 2967.523660,593.975216 2960.539952,606.735826 2955.915613,611.595516 2951.727699,613.545379 2942.624444,620.473386 2929.802199,627.040370 2920.543606,641.480251 2895.089379,675.744920 2830.453074,678.995316 2830.615185,680.612734 2828.980469,713.995568 2813.437260,721.353723 2809.593406,725.271872 2809.711585,752.757169 2805.457249,767.758803 2805.155861,783.481984 2804.672381,805.318299 2805.108069,813.625922 2764.616122,817.197106 2702.710960,818.302404 2706.105226,833.120990 2704.869339,852.899542 2702.933006,891.065858 2704.360916,915.285963 2699.007523,932.625718 2685.900154,950.751042 2685.686505,956.298561 2686.240112,964.136724 2682.656088,969.425543 2676.723849,973.163576 2673.474459,972.901808 2669.789663,978.648556 2658.298065,996.377492 2660.078430,1002.807301 2655.121658,1017.371530 2649.936348,1023.278575 2635.384074,1044.084032 2623.667071,1052.933634 2609.416140,1058.027033 2605.929790,1062.391581 2608.005555,1066.492636 2608.734291,1072.371622 2596.989070,1089.296345 2591.774521,1094.049112 2584.672601,1097.350477 2570.697634,1113.299011 2549.812461,1135.665003 2537.030091,1139.332920 2533.278054,1142.427021 2528.244143,1145.098344 2513.220006,1146.979620 2506.993755,1143.905930 2457.058277,1141.254956 2436.923766,1142.799856 2432.638728,1152.815757 2366.665126,1142.099035 2316.125947,1124.903776 2288.216225,1048.924067 2284.011219,1035.236887 2174.086166,1026.717676 2154.940877,1031.125771 2154.445668,1139.015309 2125.200739,1147.157023 2050.868518,1143.042037 2046.826153,1129.983883 2044.281866,1057.279199 2047.916477,1045.169405 2037.192121,1033.903051 2019.015621,1067.163593 2001.656800,1077.535144 1962.403938,1084.544214 1906.964019,1084.113923 1896.550053,1067.053366 1891.767154,1070.407308 1876.042312,1081.437191 1871.596442,1079.695787 1862.369814,1063.760064 1863.173754,1058.663903 1855.924375,1029.050117 1850.397965,1021.560914 1849.974199,1004.945330 1856.352331,1000.395608 1858.401190,980.707112 1855.948492,957.434964 1846.718745,941.043965 1836.660472,937.602043 1803.983087,938.668792 1800.341312,932.519853 1793.107011,930.627491 1783.444134,933.872753 1760.456754,923.608210 1743.477140,921.731313 1734.184290,912.028142 1709.141340,894.074977 1706.394551,886.403859 1708.019677,881.975322 1694.154502,865.924912 1686.380698,847.642133 1681.119478,845.810573 1675.271339,834.875572 1674.271503,809.256216 1681.166662,807.003308 1685.153278,781.256682 1682.091109,765.974571 1675.047108,744.441185 1667.810697,718.081394 1678.530232,640.351174 1683.428262,630.996677 1697.649768,623.381193 1705.089066,612.962275 1722.875234,599.991403 1754.886039,590.367214 1778.650243,582.230770 1791.707952,545.934931 1802.561405,523.911625 1815.898757,515.186068 1847.341291,511.407674 1856.113570,508.485111 1859.220632,496.033284 1848.776846,483.938101 1867.972980,469.943165 1898.581509,450.403977 1905.948812,437.143862 1941.621262,401.160388 1999.860369,351.740806 2031.869760,324.358668"/>
    <poly id="1074984227" type="leisure" color="207,245,201" fill="1" layer="-2.00" shape="2934.021089,189.842394 2886.429663,233.797819 2913.350660,225.251692 2931.949373,217.616407 2941.621526,205.820516 2947.691584,198.280862 2953.612936,193.743702 2973.233123,190.236399 2993.708617,192.493874 2992.960209,208.683700 3002.656690,243.556176 2992.437378,307.110378 2980.399386,317.344667 2981.937436,323.092084 2988.855862,349.016617 3012.694521,356.031219 3054.496984,367.221922 3073.527679,367.428200 3087.829934,364.300271 3108.599013,360.075574 3116.212379,358.494374 3127.808359,367.674284 3095.461152,409.154245 3085.830520,431.799805 3074.434421,439.718676 3035.411580,492.452259 3030.208173,497.670872 3009.447452,529.839192 3003.343516,545.242977 2998.671289,552.991505 2899.222192,491.285428 2861.356354,461.747931 2859.319641,454.413867 2863.886489,442.514143 2871.708780,430.765068 2891.997562,407.615606 2859.265525,379.336170 2835.805310,368.836132 2827.500602,370.435150 2808.511709,381.079336 2788.771002,398.217670 2772.967239,406.237753 2758.729950,411.919086 2628.271231,325.591976 2630.885824,310.043260 2707.419233,218.004801 2733.480950,194.008679 2735.397709,169.015098 2745.829353,168.750304 2753.165467,165.098905 2765.118451,151.856595 2777.531255,129.128901 2833.902139,101.587414 2870.702820,107.817424 2898.283183,124.910243 2912.084176,156.901941 2877.266723,201.910639 2882.641193,212.636334 2917.934132,168.304193 2928.124445,176.597660 2934.021089,189.842394"/>
    <poly id="1074984227#1" type="sport" color="79,230,125" fill="1" layer="-2.00" shape="2934.021089,189.842394 2886.429663,233.797819 2913.350660,225.251692 2931.949373,217.616407 2941.621526,205.820516 2947.691584,198.280862 2953.612936,193.743702 2973.233123,190.236399 2993.708617,192.493874 2992.960209,208.683700 3002.656690,243.556176 2992.437378,307.110378 2980.399386,317.344667 2981.937436,323.092084 2988.855862,349.016617 3012.694521,356.031219 3054.496984,367.221922 3073.527679,367.428200 3087.829934,364.300271 3108.599013,360.075574 3116.212379,358.494374 3127.808359,367.674284 3095.461152,409.154245 3085.830520,431.799805 3074.434421,439.718676 3035.411580,492.452259 3030.208173,497.670872 3009.447452,529.839192 3003.343516,545.242977 2998.671289,552.991505 2899.222192,491.285428 2861.356354,461.747931 2859.319641,454.413867 2863.886489,442.514143 2871.708780,430.765068 2891.997562,407.615606 2859.265525,379.336170 2835.805310,368.836132 2827.500602,370.435150 2808.511709,381.079336 2788.771002,398.217670 2772.967239,406.237753 2758.729950,411.919086 2628.271231,325.591976 2630.885824,310.043260 2707.419233,218.004801 2733.480950,194.008679 2735.397709,169.015098 2745.829353,168.750304 2753.165467,165.098905 2765.118451,151.856595 2777.531255,129.128901 2833.902139,101.587414 2870.702820,107.817424 2898.283183,124.910243 2912.084176,156.901941 2877.266723,201.910639 2882.641193,212.636334 2917.934132,168.304193 2928.124445,176.597660 2934.021089,189.842394"/>
    <poly id="1074984230" type="leisure" color="207,245,201" fill="1" layer="-2.00" shape="2523.989213,83.123174 2557.280308,106.078295 2578.308601,93.993420 2594.935833,90.794445 2630.306916,95.204893 2651.195241,104.847863 2665.944313,128.496436 2671.122135,149.855809 2670.373463,184.060268 2670.498912,207.391595 2667.599283,230.111144 2656.057567,241.488411 2643.868835,254.970130 2583.039208,261.824098 2553.099532,251.955939 2521.026058,231.291164 2496.693405,204.876571 2474.774848,191.106406 2482.382851,171.276915 2493.738464,125.018916 2523.989213,83.123174"/>
    <poly id="1074984230#1" type="sport" color="79,230,125" fill="1" layer="-2.00" shape="2523.989213,83.123174 2557.280308,106.078295 2578.308601,93.993420 2594.935833,90.794445 2630.306916,95.204893 2651.195241,104.847863 2665.944313,128.496436 2671.122135,149.855809 2670.373463,184.060268 2670.498912,207.391595 2667.599283,230.111144 2656.057567,241.488411 2643.868835,254.970130 2583.039208,261.824098 2553.099532,251.955939 2521.026058,231.291164 2496.693405,204.876571 2474.774848,191.106406 2482.382851,171.276915 2493.738464,125.018916 2523.989213,83.123174"/>
    <poly id="1074984231" type="tourism" color="207,245,201" fill="1" layer="-2.00" shape="2764.006289,322.356593 2760.328358,322.938628 2757.349232,325.157777 2755.739269,328.508344 2755.876298,332.203290 2757.730827,335.421492 2760.868860,337.418733 2764.586606,337.724198 2768.009210,336.282347 2770.375104,333.412384 2771.130506,329.783638 2770.106129,326.222278 2767.529955,323.533284 2764.006289,322.356593"/>
    <poly id="1074984232" type="amenity" color="237,199,199" fill="1" layer="-1.00" shape="2559.145757,235.664725 2571.266938,241.654092 2574.310437,235.501573 2562.180324,229.501321 2559.145757,235.664725"/>
    <poly id="1074984233" type="amenity" color="237,199,199" fill="1" layer="-1.00" shape="2536.175830,125.373217 2540.654400,129.068913 2549.094560,118.836496 2544.607346,115.141014 2536.175830,125.373217"/>
    <poly id="1074984236" type="leisure" color="207,245,201" fill="1" layer="-2.00" shape="2696.148733,646.719799 2666.695288,678.065888 2655.700381,694.260601 2635.348007,719.955756 2629.300464,726.651044 2619.871329,737.075141 2601.306531,754.495146 2584.673589,767.623470 2562.967052,781.869227 2533.873992,796.391628 2508.351871,805.447872 2483.906560,811.278182 2458.523717,814.244739 2424.691401,814.116526 2399.033009,811.348265 2380.682907,807.605641 2359.240911,801.298381 2336.628328,792.488692 2312.367510,780.078093 2298.531100,770.889727 2280.724077,757.570873 2261.438401,740.180308 2245.758229,722.431465 2231.822937,703.249933 2206.145504,665.441956 2195.743433,653.256443 2184.838768,643.749282 2176.830558,638.977479 2169.726606,634.737982 2156.439252,628.790049 2144.520595,624.973042 2128.226935,622.544703 2110.576524,621.172743 2068.599777,619.454190 2060.176543,619.102332 2036.231414,616.746929 2018.467266,613.967552 1999.256908,607.715428 1979.333767,597.927449 1964.601009,587.529655 1958.040653,582.909973 1942.525474,566.245904 1931.086639,550.388684 1920.212411,528.863899 1913.101377,506.376890 1910.893202,487.263434 1912.536053,473.005288 1917.381464,460.553604 1925.913571,449.562854 1935.727957,440.360890 1952.730209,432.230773 1967.241834,429.528583 1978.526752,429.840750 1988.742025,432.634714 2023.824272,446.790071 2043.796289,454.411180 2059.678090,458.649103 2080.251846,462.056737 2102.173745,463.730804 2123.344609,463.080599 2142.384629,460.596612 2163.833795,455.252515 2194.643383,445.283157 2223.454975,436.997422 2245.815144,432.785438 2275.049054,429.198275 2298.623364,427.498921 2325.312980,427.919460 2338.871859,428.896214 2351.234984,429.781235 2381.507584,434.731098 2411.984740,442.285881 2437.751411,450.626924 2462.923073,460.737987 2483.468779,470.877861 2526.638546,497.402271 2596.957544,544.850180 2681.066932,605.165056 2715.280155,628.097280 2696.148733,646.719799"/>
    <poly id="1074984236#1" type="sport" color="79,230,125" fill="1" layer="-2.00" shape="2696.148733,646.719799 2666.695288,678.065888 2655.700381,694.260601 2635.348007,719.955756 2629.300464,726.651044 2619.871329,737.075141 2601.306531,754.495146 2584.673589,767.623470 2562.967052,781.869227 2533.873992,796.391628 2508.351871,805.447872 2483.906560,811.278182 2458.523717,814.244739 2424.691401,814.116526 2399.033009,811.348265 2380.682907,807.605641 2359.240911,801.298381 2336.628328,792.488692 2312.367510,780.078093 2298.531100,770.889727 2280.724077,757.570873 2261.438401,740.180308 2245.758229,722.431465 2231.822937,703.249933 2206.145504,665.441956 2195.743433,653.256443 2184.838768,643.749282 2176.830558,638.977479 2169.726606,634.737982 2156.439252,628.790049 2144.520595,624.973042 2128.226935,622.544703 2110.576524,621.172743 2068.599777,619.454190 2060.176543,619.102332 2036.231414,616.746929 2018.467266,613.967552 1999.256908,607.715428 1979.333767,597.927449 1964.601009,587.529655 1958.040653,582.909973 1942.525474,566.245904 1931.086639,550.388684 1920.212411,528.863899 1913.101377,506.376890 1910.893202,487.263434 1912.536053,473.005288 1917.381464,460.553604 1925.913571,449.562854 1935.727957,440.360890 1952.730209,432.230773 1967.241834,429.528583 1978.526752,429.840750 1988.742025,432.634714 2023.824272,446.790071 2043.796289,454.411180 2059.678090,458.649103 2080.251846,462.056737 2102.173745,463.730804 2123.344609,463.080599 2142.384629,460.596612 2163.833795,455.252515 2194.643383,445.283157 2223.454975,436.997422 2245.815144,432.785438 2275.049054,429.198275 2298.623364,427.498921 2325.312980,427.919460 2338.871859,428.896214 2351.234984,429.781235 2381.507584,434.731098 2411.984740,442.285881 2437.751411,450.626924 2462.923073,460.737987 2483.468779,470.877861 2526.638546,497.402271 2596.957544,544.850180 2681.066932,605.165056 2715.280155,628.097280 2696.148733,646.719799"/>
    <poly id="1074984237" type="landuse" color="194,194,130" fill="1" layer="-3.00" shape="2654.118908,978.235831 2577.763765,980.642196 2565.321154,984.079288 2560.463679,988.934061 2561.917201,1087.299916 2558.284658,1099.520436 2554.213445,1103.666639 2548.257672,1106.472441 2548.511062,1112.019207 2557.089056,1111.679024 2578.722425,1087.106081 2582.223415,1083.318681 2579.104721,1079.010900 2584.356397,1066.871420 2588.675636,1063.296466 2594.332606,1062.341954 2599.290446,1056.673881 2617.864409,1043.729465 2628.561904,1035.594352 2635.447932,1019.026364 2632.217004,1015.065712 2632.188644,1009.524337 2641.408857,989.187521 2647.848884,987.058094 2650.052523,987.002117 2654.118908,978.235831"/>
    <poly id="1074984238" type="landuse" color="194,194,130" fill="1" layer="-3.00" shape="2702.710960,818.302404 2764.616122,817.197106 2805.108069,813.625922 2814.544729,805.878504 2824.106383,794.196266 2821.322287,801.708198 2769.611541,862.051164 2723.809023,921.422630 2719.754606,944.626880 2560.716386,1148.249103 2489.633876,1162.073108 2432.638728,1152.815757 2436.923766,1142.799856 2457.058277,1141.254956 2506.993755,1143.905930 2513.220006,1146.979620 2528.244143,1145.098344 2533.278054,1142.427021 2537.030091,1139.332920 2549.812461,1135.665003 2570.697634,1113.299011 2584.672601,1097.350477 2591.774521,1094.049112 2596.989070,1089.296345 2608.734291,1072.371622 2608.005555,1066.492636 2605.929790,1062.391581 2609.416140,1058.027033 2623.667071,1052.933634 2635.384074,1044.084032 2649.936348,1023.278575 2655.121658,1017.371530 2660.078430,1002.807301 2658.298065,996.377492 2669.789663,978.648556 2673.474459,972.901808 2676.723849,973.163576 2682.656088,969.425543 2686.240112,964.136724 2685.686505,956.298561 2685.900154,950.751042 2699.007523,932.625718 2704.360916,915.285963 2702.933006,891.065858 2704.869339,852.899542 2706.105226,833.120990 2702.710960,818.302404"/>
    <poly id="1074984239" type="water" color="181,209,209" fill="1" layer="-4.00" shape="2830.615185,680.612734 2828.980469,713.995568 2867.295900,695.852878 2895.089379,675.744920 2830.453074,678.995316 2830.615185,680.612734"/>
    <poly id="1074984240" type="water" color="181,209,209" fill="1" layer="-4.00" shape="2805.851557,691.981056 2809.607773,698.238575 2810.536318,707.566583 2808.848053,713.962280 2805.492224,714.280684 2803.244565,712.605134 2801.260551,693.719107 2805.851557,691.981056"/>
    <poly id="1074984242" type="landuse" color="194,194,130" fill="1" layer="-3.00" shape="2951.727699,613.545379 2955.915613,611.595516 2960.539952,606.735826 2967.523660,593.975216 2974.325772,585.306361 2978.160786,583.420991 2984.254093,588.064436 2979.954952,592.449396 2933.830030,653.215880 2914.985581,673.962983 2836.859222,780.478338 2831.630757,780.266722 2828.413407,781.270199 2824.126012,786.110322 2813.482386,800.818742 2806.122324,807.591626 2804.672381,805.318299 2805.155861,783.481984 2805.457249,767.758803 2809.711585,752.757169 2809.593406,725.271872 2813.437260,721.353723 2828.980469,713.995568 2867.295900,695.852878 2895.089379,675.744920 2920.543606,641.480251 2929.802199,627.040370 2942.624444,620.473386 2951.727699,613.545379"/>
    <poly id="1074984243" type="landuse" color="194,194,130" fill="1" layer="-3.00" shape="1624.605329,361.999773 1663.920578,320.024452 1698.157106,351.825982 1706.845021,342.541404 1718.794566,353.642845 1677.273832,397.984319 1687.566994,407.550864 1676.252437,419.634699 1630.403101,377.045438 1635.235232,371.879747 1624.605329,361.999773"/>
    <poly id="1074984244" type="leisure" color="207,245,201" fill="1" layer="-2.00" shape="1594.717879,364.384331 1591.849023,370.232950 1575.833469,378.727394 1559.533707,403.522350 1546.696954,427.784648 1508.369654,427.475193 1507.561969,418.877185 1511.019470,372.763567 1514.984257,339.398357 1517.049236,338.645906 1525.808872,336.578502 1534.405987,332.549411 1555.602757,331.541626 1574.692758,334.052916 1589.522448,347.190864 1595.084949,351.324840 1596.024436,356.620860 1594.717879,364.384331"/>
    <poly id="1074984244#1" type="sport" color="79,230,125" fill="1" layer="-2.00" shape="1594.717879,364.384331 1591.849023,370.232950 1575.833469,378.727394 1559.533707,403.522350 1546.696954,427.784648 1508.369654,427.475193 1507.561969,418.877185 1511.019470,372.763567 1514.984257,339.398357 1517.049236,338.645906 1525.808872,336.578502 1534.405987,332.549411 1555.602757,331.541626 1574.692758,334.052916 1589.522448,347.190864 1595.084949,351.324840 1596.024436,356.620860 1594.717879,364.384331"/>
    <poly id="1074984248" type="leisure" color="207,245,201" fill="1" layer="-2.00" shape="2429.507505,816.815087 2428.840236,822.540754 2435.351655,822.874968 2436.117484,817.624372 2432.213447,816.446406 2429.507505,816.815087"/>
    <poly id="1074984249" type="leisure" color="207,245,201" fill="1" layer="-2.00" shape="2465.298813,749.099964 2466.009669,772.638594 2477.286024,772.296384 2476.584127,748.768634 2465.298813,749.099964"/>
    <poly id="1074984249#1" type="sport" color="79,230,125" fill="1" layer="-2.00" shape="2465.298813,749.099964 2466.009669,772.638594 2477.286024,772.296384 2476.584127,748.768634 2465.298813,749.099964"/>