<?xml version="1.0" encoding="UTF-8"?>

<!-- generated on 2024-07-30 00:16:43 by Eclipse SUMO netconvert Version 1.19.0
<configuration xmlns:xsi="http://www.w3.org/2001/XMLSchema-instance" xsi:noNamespaceSchemaLocation="http://sumo.dlr.de/xsd/netconvertConfiguration.xsd">

    <input>
        <type-files value="D:\ProgramData\Anaconda3\envs\trans\lib\site-packages\tshub\sumo_tools\./osm_build_type/net.typ.xml"/>
        <osm-files value="E:\OneDrive%20-%20CUHK-Shenzhen\RA_419\UAV_Path_planing\code\map_dataset\US_UAM\US_UAM_filter13.osm"/>
    </input>

    <output>
        <output-file value="E:\OneDrive%20-%20CUHK-Shenzhen\RA_419\UAV_Path_planing\code\map_dataset\US_UAM_filter13\US_UAM_filter13.net.xml"/>
        <output.street-names value="true"/>
        <output.original-names value="true"/>
    </output>

    <projection>
        <proj.utm value="true"/>
    </projection>

    <processing>
        <geometry.remove value="true"/>
        <roundabouts.guess value="true"/>
    </processing>

    <building_defaults>
        <default.lanenumber value="3"/>
    </building_defaults>

    <tls_building>
        <tls.discard-simple value="true"/>
        <tls.guess value="true"/>
        <tls.guess.threshold value="12"/>
        <tls.join value="true"/>
        <tls.guess-signals value="true"/>
        <tls.green.time value="30"/>
        <tls.layout value="incoming"/>
    </tls_building>

    <ramp_guessing>
        <ramps.guess value="true"/>
    </ramp_guessing>

    <edge_removal>
        <keep-edges.by-vclass value="passenger"/>
    </edge_removal>

    <junctions>
        <no-turnarounds value="true"/>
        <junctions.join value="true"/>
        <junctions.corner-detail value="5"/>
    </junctions>

</configuration>
-->

<net version="1.16" junctionCornerDetail="5" limitTurnSpeed="5.50" xmlns:xsi="http://www.w3.org/2001/XMLSchema-instance" xsi:noNamespaceSchemaLocation="http://sumo.dlr.de/xsd/net_file.xsd">

    <location netOffset="-298286.93,-4335480.55" convBoundary="0.00,0.00,3239.32,3491.06" origBoundary="-77.337822,39.145635,-77.297361,39.176893" projParameter="+proj=utm +zone=18 +ellps=WGS84 +datum=WGS84 +units=m +no_defs"/>

    <type id="highway.primary" priority="12" numLanes="2" speed="27.78" disallow="tram rail_urban rail rail_electric rail_fast ship" oneway="0"/>
    <type id="highway.residential" priority="3" numLanes="2" speed="13.89" disallow="tram rail_urban rail rail_electric rail_fast ship" oneway="0"/>
    <type id="highway.secondary" priority="11" numLanes="1" speed="27.78" disallow="tram rail_urban rail rail_electric rail_fast ship" oneway="0"/>
    <type id="highway.tertiary" priority="10" numLanes="1" speed="22.22" disallow="tram rail_urban rail rail_electric rail_fast ship" oneway="0"/>
    <type id="highway.unclassified" priority="4" numLanes="1" speed="13.89" disallow="tram rail_urban rail rail_electric rail_fast ship" oneway="0"/>

    <edge id=":1687877973_0" function="internal">
        <lane id=":1687877973_0_0" index="0" disallow="tram rail_urban rail rail_electric rail_fast ship" speed="22.22" length="0.43" shape="2777.82,436.26 2777.71,436.19 2777.64,436.13 2777.57,436.08 2777.46,436.02"/>
    </edge>
    <edge id=":1687877973_1" function="internal">
        <lane id=":1687877973_1_0" index="0" disallow="tram rail_urban rail rail_electric rail_fast ship" speed="22.22" length="0.10" shape="2778.96,433.19 2779.04,433.21"/>
    </edge>
    <edge id=":1687878089_0" function="internal">
        <lane id=":1687878089_0_0" index="0" disallow="tram rail_urban rail rail_electric rail_fast ship" speed="21.81" length="8.09" shape="2819.20,446.69 2821.54,447.24 2823.17,447.66 2824.80,447.82 2827.15,447.57"/>
    </edge>
    <edge id=":1687878089_1" function="internal">
        <lane id=":1687878089_1_0" index="0" disallow="tram rail_urban rail rail_electric rail_fast ship" speed="11.95" length="8.21" shape="2819.82,450.77 2821.64,449.21 2823.10,448.39 2824.75,447.97 2827.15,447.57"/>
    </edge>
    <edge id=":1687878091_0" function="internal">
        <lane id=":1687878091_0_0" index="0" disallow="tram rail_urban rail rail_electric rail_fast ship" speed="10.68" length="5.99" shape="2834.80,446.76 2836.53,446.59 2837.67,446.17 2838.71,445.47 2840.16,444.43"/>
    </edge>
    <edge id=":1687878091_1" function="internal">
        <lane id=":1687878091_1_0" index="0" disallow="tram rail_urban rail rail_electric rail_fast ship" speed="11.04" length="6.00" shape="2834.80,446.76 2836.54,446.83 2837.71,447.17 2838.80,447.80 2840.32,448.72"/>
    </edge>
    <edge id=":1687878350_0" function="internal">
        <lane id=":1687878350_0_0" index="0" disallow="tram rail_urban rail rail_electric rail_fast ship" speed="15.84" length="7.39" shape="2852.72,455.37 2852.06,457.48 2851.57,458.94 2851.37,460.42 2851.58,462.56"/>
    </edge>
    <edge id=":1687878350_1" function="internal">
        <lane id=":1687878350_1_0" index="0" disallow="tram rail_urban rail rail_electric rail_fast ship" speed="22.22" length="7.40" shape="2848.67,455.83 2849.76,457.74 2850.54,459.06 2851.11,460.44 2851.58,462.56"/>
    </edge>
    <edge id=":1687878477_0" function="internal">
        <lane id=":1687878477_0_0" index="0" disallow="tram rail_urban rail rail_electric rail_fast ship" speed="11.88" length="7.04" shape="2811.37,467.42 2811.12,465.41 2810.57,464.10 2809.68,462.90 2808.44,461.21"/>
    </edge>
    <edge id=":1687878477_1" function="internal">
        <lane id=":1687878477_1_0" index="0" disallow="tram rail_urban rail rail_electric rail_fast ship" speed="22.22" length="7.07" shape="2811.37,467.42 2811.37,465.34 2811.57,463.92 2811.96,462.53 2812.52,460.50"/>
    </edge>
    <edge id=":1687878588_0" function="internal">
        <lane id=":1687878588_0_0" index="0" disallow="tram rail_urban rail rail_electric rail_fast ship" speed="22.22" length="7.13" shape="2813.19,475.83 2812.46,473.84 2811.94,472.47 2811.62,471.06 2811.44,468.97"/>
    </edge>
    <edge id=":1687878588_1" function="internal">
        <lane id=":1687878588_1_0" index="0" disallow="tram rail_urban rail rail_electric rail_fast ship" speed="12.22" length="7.10" shape="2809.08,475.50 2810.15,473.67 2810.92,472.38 2811.36,471.02 2811.44,468.97"/>
    </edge>
    <edge id=":1687878873_0" function="internal">
        <lane id=":1687878873_0_0" index="0" disallow="tram rail_urban rail rail_electric rail_fast ship" speed="18.05" length="7.89" shape="2831.60,487.58 2829.32,487.93 2827.81,488.45 2826.36,489.20 2824.25,490.24"/>
    </edge>
    <edge id=":1687878873_1" function="internal">
        <lane id=":1687878873_1_0" index="0" disallow="tram rail_urban rail rail_electric rail_fast ship" speed="22.22" length="7.89" shape="2831.60,487.58 2829.29,487.67 2827.72,487.41 2826.16,486.91 2823.91,486.24"/>
    </edge>
    <edge id=":1793613788_0" function="internal">
        <lane id=":1793613788_0_0" index="0" disallow="tram rail_urban rail rail_electric rail_fast ship" speed="8.73" length="7.11" shape="2271.41,1760.56 2271.68,1761.52 2272.46,1762.78 2273.77,1764.33 2275.60,1766.18"/>
        <lane id=":1793613788_0_1" index="1" disallow="tram rail_urban rail rail_electric rail_fast ship" speed="10.91" length="11.35" shape="2268.21,1760.56 2268.62,1762.26 2269.82,1764.34 2271.83,1766.82 2274.64,1769.69"/>
    </edge>
    <edge id=":1793613788_2" function="internal">
        <lane id=":1793613788_2_0" index="0" disallow="tram rail_urban rail rail_electric rail_fast ship" speed="6.99" length="7.95" shape="2257.77,1766.76 2259.54,1765.86 2260.81,1764.53 2261.56,1762.77 2261.81,1760.57"/>
        <lane id=":1793613788_2_1" index="1" disallow="tram rail_urban rail rail_electric rail_fast ship" speed="7.80" length="10.09" shape="2257.77,1766.76 2260.94,1765.46 2263.21,1763.99 2264.56,1762.36 2265.01,1760.57"/>
    </edge>
    <edge id=":1793613788_4" function="internal">
        <lane id=":1793613788_4_0" index="0" disallow="tram rail_urban rail rail_electric rail_fast ship" speed="11.29" length="18.52" shape="2257.77,1766.76 2263.99,1765.00 2269.03,1764.31 2272.90,1764.71 2275.60,1766.18"/>
        <lane id=":1793613788_4_1" index="1" disallow="tram rail_urban rail rail_electric rail_fast ship" speed="8.70" length="18.52" shape="2258.84,1769.78 2262.31,1766.45 2266.10,1765.33 2270.21,1766.41 2274.64,1769.69"/>
    </edge>
    <edge id=":1793613794_0" function="internal">
        <lane id=":1793613794_0_0" index="0" disallow="tram rail_urban rail rail_electric rail_fast ship" speed="8.33" length="8.18" shape="2288.10,1786.79 2286.75,1786.83 2285.12,1787.47 2283.23,1788.70 2281.07,1790.52"/>
        <lane id=":1793613794_0_1" index="1" disallow="tram rail_urban rail rail_electric rail_fast ship" speed="10.37" length="12.98" shape="2288.76,1783.66 2286.54,1783.70 2283.93,1784.67 2280.93,1786.58 2277.54,1789.42"/>
    </edge>
    <edge id=":1793613794_2" function="internal">
        <lane id=":1793613794_2_0" index="0" disallow="tram rail_urban rail rail_electric rail_fast ship" speed="13.89" length="10.91" shape="2281.20,1771.53 2283.48,1773.84 2285.14,1775.43 2287.04,1776.53 2290.09,1777.40"/>
        <lane id=":1793613794_2_1" index="1" disallow="tram rail_urban rail rail_electric rail_fast ship" speed="13.89" length="12.66" shape="2281.20,1771.53 2283.51,1774.53 2284.73,1777.13 2286.24,1779.18 2289.42,1780.53"/>
    </edge>
    <edge id=":1793613794_4" function="internal">
        <lane id=":1793613794_4_0" index="0" disallow="tram rail_urban rail rail_electric rail_fast ship" speed="9.62" length="20.69" shape="2281.20,1771.53 2284.96,1776.31 2286.19,1781.07 2284.89,1785.81 2281.07,1790.52"/>
        <lane id=":1793613794_4_1" index="1" disallow="tram rail_urban rail rail_electric rail_fast ship" speed="9.07" length="20.69" shape="2277.74,1772.65 2281.04,1776.86 2282.11,1781.06 2280.94,1785.25 2277.54,1789.42"/>
    </edge>
    <edge id=":1793613797_0" function="internal">
        <lane id=":1793613797_0_0" index="0" disallow="tram rail_urban rail rail_electric rail_fast ship" speed="13.89" length="10.19" shape="2274.85,1796.27 2272.49,1798.20 2270.77,1799.51 2269.46,1801.09 2268.34,1803.80"/>
        <lane id=":1793613797_0_1" index="1" disallow="tram rail_urban rail rail_electric rail_fast ship" speed="13.89" length="12.11" shape="2274.85,1796.27 2271.79,1798.18 2269.10,1798.96 2266.90,1800.04 2265.28,1802.86"/>
    </edge>
    <edge id=":1793613797_2" function="internal">
        <lane id=":1793613797_2_0" index="0" disallow="tram rail_urban rail rail_electric rail_fast ship" speed="9.40" length="21.16" shape="2274.85,1796.27 2269.57,1799.92 2264.68,1800.79 2260.15,1798.88 2256.01,1794.19"/>
        <lane id=":1793613797_2_1" index="1" disallow="tram rail_urban rail rail_electric rail_fast ship" speed="8.82" length="21.16" shape="2274.05,1792.65 2269.43,1795.85 2265.15,1796.60 2261.19,1794.91 2257.57,1790.78"/>
    </edge>
    <edge id=":1793613797_4" function="internal">
        <lane id=":1793613797_4_0" index="0" disallow="tram rail_urban rail rail_electric rail_fast ship" speed="8.51" length="7.59" shape="2259.16,1800.98 2259.12,1800.06 2258.58,1798.62 2257.54,1796.67 2256.01,1794.19"/>
        <lane id=":1793613797_4_1" index="1" disallow="tram rail_urban rail rail_electric rail_fast ship" speed="10.74" length="12.28" shape="2262.22,1801.92 2262.24,1800.23 2261.47,1797.80 2259.91,1794.65 2257.57,1790.78"/>
    </edge>
    <edge id=":1793613799_0" function="internal">
        <lane id=":1793613799_0_0" index="0" disallow="tram rail_urban rail rail_electric rail_fast ship" speed="6.98" length="7.70" shape="2662.13,1801.52 2662.43,1803.62 2663.21,1805.31 2664.46,1806.58 2666.19,1807.45"/>
        <lane id=":1793613799_0_1" index="1" disallow="tram rail_urban rail rail_electric rail_fast ship" speed="8.44" length="11.62" shape="2658.93,1801.61 2659.39,1804.73 2660.59,1807.25 2662.52,1809.17 2665.17,1810.48"/>
    </edge>
    <edge id=":1793613799_2" function="internal">
        <lane id=":1793613799_2_0" index="0" disallow="tram rail_urban rail rail_electric rail_fast ship" speed="9.04" length="7.09" shape="2648.67,1807.35 2650.25,1805.90 2651.49,1804.90 2652.29,1803.74 2652.53,1801.80"/>
        <lane id=":1793613799_2_1" index="1" disallow="tram rail_urban rail rail_electric rail_fast ship" speed="10.14" length="9.03" shape="2648.67,1807.35 2655.73,1801.71"/>
    </edge>
    <edge id=":1793613799_4" function="internal">
        <lane id=":1793613799_4_0" index="0" disallow="tram rail_urban rail rail_electric rail_fast ship" speed="10.80" length="17.18" shape="2648.67,1807.35 2651.28,1805.69 2655.06,1805.16 2660.03,1805.74 2666.19,1807.45"/>
        <lane id=":1793613799_4_1" index="1" disallow="tram rail_urban rail rail_electric rail_fast ship" speed="10.14" length="17.18" shape="2649.86,1810.80 2652.24,1809.21 2655.59,1808.63 2659.90,1809.05 2665.17,1810.48"/>
    </edge>
    <edge id=":1793613803_0" function="internal">
        <lane id=":1793613803_0_0" index="0" disallow="tram rail_urban rail rail_electric rail_fast ship" speed="6.82" length="9.64" shape="2500.64,1826.41 2497.99,1826.54 2495.98,1827.46 2494.62,1829.17 2493.90,1831.66"/>
    </edge>
    <edge id=":1793613803_1" function="internal">
        <lane id=":1793613803_1_0" index="0" disallow="tram rail_urban rail rail_electric rail_fast ship" speed="13.89" length="21.28" shape="2500.64,1826.41 2479.42,1824.02"/>
        <lane id=":1793613803_1_1" index="1" disallow="tram rail_urban rail rail_electric rail_fast ship" speed="13.89" length="21.28" shape="2500.92,1823.22 2479.85,1820.85"/>
    </edge>
    <edge id=":1793613803_3" function="internal">
        <lane id=":1793613803_3_0" index="0" disallow="tram rail_urban rail rail_electric rail_fast ship" speed="9.23" length="19.55" shape="2500.92,1823.22 2495.69,1822.00 2492.15,1819.39 2490.29,1815.40 2490.12,1810.02"/>
    </edge>
    <edge id=":1793613803_4" function="internal">
        <lane id=":1793613803_4_0" index="0" disallow="tram rail_urban rail rail_electric rail_fast ship" speed="6.47" length="9.06" shape="2496.48,1810.72 2496.56,1813.22 2497.42,1815.07 2499.06,1816.28 2501.47,1816.85"/>
    </edge>
    <edge id=":1793613803_5" function="internal">
        <lane id=":1793613803_5_0" index="0" disallow="tram rail_urban rail rail_electric rail_fast ship" speed="13.89" length="21.05" shape="2496.48,1810.72 2493.90,1831.66"/>
        <lane id=":1793613803_5_1" index="1" disallow="tram rail_urban rail rail_electric rail_fast ship" speed="13.89" length="21.05" shape="2493.30,1810.37 2490.73,1831.22"/>
    </edge>
    <edge id=":1793613803_7" function="internal">
        <lane id=":1793613803_7_0" index="0" disallow="tram rail_urban rail rail_electric rail_fast ship" speed="9.21" length="19.56" shape="2493.30,1810.37 2491.96,1815.58 2489.27,1819.06 2485.23,1820.82 2479.85,1820.85"/>
    </edge>
    <edge id=":1793613803_8" function="internal">
        <lane id=":1793613803_8_0" index="0" disallow="tram rail_urban rail rail_electric rail_fast ship" speed="6.45" length="9.03" shape="2480.73,1814.51 2483.21,1814.50 2485.08,1813.69 2486.32,1812.08 2486.94,1809.67"/>
    </edge>
    <edge id=":1793613803_9" function="internal">
        <lane id=":1793613803_9_0" index="0" disallow="tram rail_urban rail rail_electric rail_fast ship" speed="13.89" length="20.96" shape="2480.73,1814.51 2501.47,1816.85"/>
        <lane id=":1793613803_9_1" index="1" disallow="tram rail_urban rail rail_electric rail_fast ship" speed="13.89" length="20.96" shape="2480.29,1817.68 2501.19,1820.03"/>
    </edge>
    <edge id=":1793613803_11" function="internal">
        <lane id=":1793613803_11_0" index="0" disallow="tram rail_urban rail rail_electric rail_fast ship" speed="9.29" length="19.49" shape="2480.29,1817.68 2485.47,1819.15 2488.93,1821.90 2490.69,1825.92 2490.73,1831.22"/>
    </edge>
    <edge id=":1793613803_12" function="internal">
        <lane id=":1793613803_12_0" index="0" disallow="tram rail_urban rail rail_electric rail_fast ship" speed="6.56" length="9.18" shape="2484.39,1830.36 2484.36,1827.88 2483.52,1826.00 2481.88,1824.71 2479.42,1824.02"/>
    </edge>
    <edge id=":1793613803_13" function="internal">
        <lane id=":1793613803_13_0" index="0" disallow="tram rail_urban rail rail_electric rail_fast ship" speed="13.89" length="20.88" shape="2484.39,1830.36 2486.94,1809.67"/>
        <lane id=":1793613803_13_1" index="1" disallow="tram rail_urban rail rail_electric rail_fast ship" speed="13.89" length="20.88" shape="2487.56,1830.79 2490.12,1810.02"/>
    </edge>
    <edge id=":1793613803_15" function="internal">
        <lane id=":1793613803_15_0" index="0" disallow="tram rail_urban rail rail_electric rail_fast ship" speed="9.48" length="19.60" shape="2487.56,1830.79 2489.02,1825.69 2491.77,1822.20 2495.83,1820.31 2501.19,1820.03"/>
    </edge>
    <edge id=":1793613807_0" function="internal">
        <lane id=":1793613807_0_0" index="0" disallow="tram rail_urban rail rail_electric rail_fast ship" speed="13.89" length="20.77" shape="2850.87,1822.07 2830.11,1822.31"/>
        <lane id=":1793613807_0_1" index="1" disallow="tram rail_urban rail rail_electric rail_fast ship" speed="13.89" length="20.77" shape="2850.84,1818.87 2830.06,1819.11"/>
    </edge>
    <edge id=":1793613807_2" function="internal">
        <lane id=":1793613807_2_0" index="0" disallow="tram rail_urban rail rail_electric rail_fast ship" speed="9.34" length="19.40" shape="2850.84,1818.87 2845.64,1818.16 2841.88,1815.94 2839.54,1812.18 2838.63,1806.90"/>
    </edge>
    <edge id=":1793613807_3" function="internal">
        <lane id=":1793613807_3_0" index="0" disallow="tram rail_urban rail rail_electric rail_fast ship" speed="6.63" length="9.25" shape="2845.02,1806.70 2845.45,1809.24 2846.56,1811.05 2848.33,1812.13 2850.78,1812.47"/>
        <lane id=":1793613807_3_1" index="1" disallow="tram rail_urban rail rail_electric rail_fast ship" speed="8.10" length="14.32" shape="2841.83,1806.80 2842.50,1810.71 2844.22,1813.49 2846.99,1815.15 2850.81,1815.67"/>
    </edge>
    <edge id=":1793613807_5" function="internal">
        <lane id=":1793613807_5_0" index="0" disallow="tram rail_urban rail rail_electric rail_fast ship" speed="9.23" length="19.50" shape="2841.83,1806.80 2841.24,1812.12 2839.08,1815.95 2835.36,1818.28 2830.06,1819.11"/>
    </edge>
    <edge id=":1793613807_6" function="internal">
        <lane id=":1793613807_6_0" index="0" disallow="tram rail_urban rail rail_electric rail_fast ship" speed="6.47" length="9.03" shape="2829.98,1812.71 2832.43,1812.32 2834.16,1811.25 2835.16,1809.47 2835.43,1807.01"/>
    </edge>
    <edge id=":1793613807_7" function="internal">
        <lane id=":1793613807_7_0" index="0" disallow="tram rail_urban rail rail_electric rail_fast ship" speed="13.89" length="20.79" shape="2829.98,1812.71 2850.78,1812.47"/>
        <lane id=":1793613807_7_1" index="1" disallow="tram rail_urban rail rail_electric rail_fast ship" speed="13.89" length="20.79" shape="2830.02,1815.91 2850.81,1815.67"/>
    </edge>
    <edge id=":1793613809_0" function="internal">
        <lane id=":1793613809_0_0" index="0" disallow="tram rail_urban rail rail_electric rail_fast ship" speed="8.12" length="8.45" shape="2679.93,1824.28 2678.15,1824.60 2676.47,1825.51 2674.89,1827.01 2673.41,1829.09"/>
        <lane id=":1793613809_0_1" index="1" disallow="tram rail_urban rail rail_electric rail_fast ship" speed="9.98" length="13.10" shape="2679.89,1821.08 2677.22,1821.59 2674.66,1823.03 2672.23,1825.41 2669.90,1828.73"/>
    </edge>
    <edge id=":1793613809_2" function="internal">
        <lane id=":1793613809_2_0" index="0" disallow="tram rail_urban rail rail_electric rail_fast ship" speed="8.72" length="10.55" shape="2670.53,1810.78 2671.95,1812.53 2673.97,1813.76 2676.59,1814.47 2679.80,1814.68"/>
        <lane id=":1793613809_2_1" index="1" disallow="tram rail_urban rail rail_electric rail_fast ship" speed="9.37" length="12.28" shape="2670.53,1810.78 2672.62,1813.92 2674.87,1816.14 2677.28,1817.47 2679.84,1817.88"/>
    </edge>
    <edge id=":1793613809_4" function="internal">
        <lane id=":1793613809_4_0" index="0" disallow="tram rail_urban rail rail_electric rail_fast ship" speed="11.79" length="18.29" shape="2670.53,1810.78 2673.22,1816.40 2674.60,1821.32 2674.67,1825.55 2673.41,1829.09"/>
        <lane id=":1793613809_4_1" index="1" disallow="tram rail_urban rail rail_electric rail_fast ship" speed="11.16" length="18.29" shape="2667.74,1812.35 2670.05,1817.24 2671.18,1821.60 2671.13,1825.42 2669.90,1828.73"/>
    </edge>
    <edge id=":1793613810_0" function="internal">
        <lane id=":1793613810_0_0" index="0" disallow="tram rail_urban rail rail_electric rail_fast ship" speed="7.42" length="8.43" shape="2644.52,1831.44 2643.44,1829.75 2641.92,1828.55 2639.96,1827.86 2637.56,1827.66"/>
        <lane id=":1793613810_0_1" index="1" disallow="tram rail_urban rail rail_electric rail_fast ship" speed="8.19" length="10.43" shape="2644.52,1831.44 2642.92,1828.36 2641.21,1826.17 2639.40,1824.87 2637.49,1824.46"/>
    </edge>
    <edge id=":1793613810_2" function="internal">
        <lane id=":1793613810_2_0" index="0" disallow="tram rail_urban rail rail_electric rail_fast ship" speed="10.94" length="17.50" shape="2644.52,1831.44 2642.25,1825.40 2641.23,1820.43 2641.44,1816.53 2642.90,1813.70"/>
        <lane id=":1793613810_2_1" index="1" disallow="tram rail_urban rail rail_electric rail_fast ship" speed="10.28" length="17.50" shape="2647.45,1830.16 2645.53,1824.96 2644.73,1820.63 2645.03,1817.16 2646.45,1814.56"/>
    </edge>
    <edge id=":1793613810_4" function="internal">
        <lane id=":1793613810_4_0" index="0" disallow="tram rail_urban rail rail_electric rail_fast ship" speed="8.71" length="7.16" shape="2637.36,1818.06 2638.31,1817.78 2639.56,1816.96 2641.09,1815.60 2642.90,1813.70"/>
        <lane id=":1793613810_4_1" index="1" disallow="tram rail_urban rail rail_electric rail_fast ship" speed="10.88" length="11.43" shape="2637.43,1821.26 2639.11,1820.82 2641.18,1819.56 2643.62,1817.47 2646.45,1814.56"/>
    </edge>
    <edge id=":1793613812_0" function="internal">
        <lane id=":1793613812_0_0" index="0" disallow="tram rail_urban rail rail_electric rail_fast ship" speed="6.68" length="9.49" shape="2926.55,1827.07 2926.12,1824.56 2924.96,1822.76 2923.08,1821.70 2920.46,1821.37"/>
    </edge>
    <edge id=":1793613812_1" function="internal">
        <lane id=":1793613812_1_0" index="0" disallow="tram rail_urban rail rail_electric rail_fast ship" speed="13.89" length="21.10" shape="2926.55,1827.07 2925.72,1806.04"/>
        <lane id=":1793613812_1_1" index="1" disallow="tram rail_urban rail rail_electric rail_fast ship" speed="13.89" length="21.10" shape="2929.75,1827.01 2928.92,1805.86"/>
    </edge>
    <edge id=":1793613812_3" function="internal">
        <lane id=":1793613812_3_0" index="0" disallow="tram rail_urban rail rail_electric rail_fast ship" speed="9.23" length="19.49" shape="2929.75,1827.01 2930.39,1821.69 2932.59,1817.89 2936.33,1815.60 2941.63,1814.82"/>
    </edge>
    <edge id=":1793613812_4" function="internal">
        <lane id=":1793613812_4_0" index="0" disallow="tram rail_urban rail rail_electric rail_fast ship" speed="6.47" length="9.03" shape="2941.65,1821.22 2939.20,1821.58 2937.46,1822.65 2936.44,1824.41 2936.15,1826.87"/>
    </edge>
    <edge id=":1793613812_5" function="internal">
        <lane id=":1793613812_5_0" index="0" disallow="tram rail_urban rail rail_electric rail_fast ship" speed="13.89" length="21.20" shape="2941.65,1821.22 2920.46,1821.37"/>
        <lane id=":1793613812_5_1" index="1" disallow="tram rail_urban rail rail_electric rail_fast ship" speed="13.89" length="21.20" shape="2941.64,1818.02 2920.43,1818.17"/>
    </edge>
    <edge id=":1793613812_7" function="internal">
        <lane id=":1793613812_7_0" index="0" disallow="tram rail_urban rail rail_electric rail_fast ship" speed="9.56" length="19.84" shape="2941.64,1818.02 2936.34,1817.28 2932.45,1815.00 2929.97,1811.20 2928.92,1805.86"/>
    </edge>
    <edge id=":1793613812_8" function="internal">
        <lane id=":1793613812_8_0" index="0" disallow="tram rail_urban rail rail_electric rail_fast ship" speed="6.92" length="9.92" shape="2935.31,1805.50 2935.83,1808.19 2937.06,1810.10 2938.99,1811.25 2941.62,1811.62"/>
    </edge>
    <edge id=":1793613812_9" function="internal">
        <lane id=":1793613812_9_0" index="0" disallow="tram rail_urban rail rail_electric rail_fast ship" speed="13.89" length="21.33" shape="2935.31,1805.50 2936.15,1826.87"/>
        <lane id=":1793613812_9_1" index="1" disallow="tram rail_urban rail rail_electric rail_fast ship" speed="13.89" length="21.33" shape="2932.11,1805.68 2932.95,1826.94"/>
    </edge>
    <edge id=":1793613812_11" function="internal">
        <lane id=":1793613812_11_0" index="0" disallow="tram rail_urban rail rail_electric rail_fast ship" speed="9.18" length="19.71" shape="2932.11,1805.68 2931.65,1811.10 2929.54,1814.98 2925.81,1817.34 2920.43,1818.17"/>
    </edge>
    <edge id=":1793613812_12" function="internal">
        <lane id=":1793613812_12_0" index="0" disallow="tram rail_urban rail rail_electric rail_fast ship" speed="6.41" length="9.04" shape="2920.37,1811.77 2922.83,1811.39 2924.55,1810.31 2925.51,1808.53 2925.72,1806.04"/>
    </edge>
    <edge id=":1793613812_13" function="internal">
        <lane id=":1793613812_13_0" index="0" disallow="tram rail_urban rail rail_electric rail_fast ship" speed="13.89" length="21.24" shape="2920.37,1811.77 2941.62,1811.62"/>
        <lane id=":1793613812_13_1" index="1" disallow="tram rail_urban rail rail_electric rail_fast ship" speed="13.89" length="21.24" shape="2920.40,1814.97 2941.63,1814.82"/>
    </edge>
    <edge id=":1793613812_15" function="internal">
        <lane id=":1793613812_15_0" index="0" disallow="tram rail_urban rail rail_electric rail_fast ship" speed="9.38" length="19.72" shape="2920.40,1814.97 2925.79,1815.67 2929.68,1817.90 2932.06,1821.66 2932.95,1826.94"/>
    </edge>
    <edge id=":1793613816_0" function="internal">
        <lane id=":1793613816_0_0" index="0" disallow="tram rail_urban rail rail_electric rail_fast ship" speed="8.17" length="8.91" shape="3003.08,1816.30 3005.38,1816.50 3007.49,1816.11 3009.40,1815.14 3011.12,1813.59"/>
        <lane id=":1793613816_0_1" index="1" disallow="tram rail_urban rail rail_electric rail_fast ship" speed="12.66" length="13.12" shape="3002.45,1819.44 3006.12,1819.72 3008.60,1818.87 3010.94,1817.20 3014.21,1815.01"/>
    </edge>
    <edge id=":1793613816_2" function="internal">
        <lane id=":1793613816_2_0" index="0" disallow="tram rail_urban rail rail_electric rail_fast ship" speed="7.80" length="8.55" shape="3006.93,1831.41 3006.06,1829.25 3004.81,1827.58 3003.18,1826.40 3001.18,1825.71"/>
        <lane id=":1793613816_2_1" index="1" disallow="tram rail_urban rail rail_electric rail_fast ship" speed="8.61" length="10.54" shape="3006.93,1831.41 3005.73,1827.76 3004.47,1825.06 3003.17,1823.34 3001.81,1822.58"/>
    </edge>
    <edge id=":1793613816_4" function="internal">
        <lane id=":1793613816_4_0" index="0" disallow="tram rail_urban rail rail_electric rail_fast ship" speed="12.12" length="18.75" shape="3006.93,1831.41 3006.14,1826.59 3006.57,1822.01 3008.23,1817.68 3011.12,1813.59"/>
        <lane id=":1793613816_4_1" index="1" disallow="tram rail_urban rail rail_electric rail_fast ship" speed="9.98" length="18.75" shape="3010.30,1831.55 3009.23,1825.92 3009.53,1821.28 3011.19,1817.65 3014.21,1815.01"/>
    </edge>
    <edge id=":1793613824_0" function="internal">
        <lane id=":1793613824_0_0" index="0" disallow="tram rail_urban rail rail_electric rail_fast ship" speed="8.60" length="10.35" shape="2651.87,1843.66 2651.50,1840.51 2650.66,1837.99 2649.35,1836.08 2647.56,1834.78"/>
        <lane id=":1793613824_0_1" index="1" disallow="tram rail_urban rail rail_electric rail_fast ship" speed="9.88" length="13.85" shape="2655.07,1843.58 2654.56,1839.53 2653.37,1836.23 2651.51,1833.69 2648.96,1831.90"/>
    </edge>
    <edge id=":1793613824_2" function="internal">
        <lane id=":1793613824_2_0" index="0" disallow="tram rail_urban rail rail_electric rail_fast ship" speed="8.03" length="8.41" shape="2666.00,1836.78 2663.96,1838.33 2662.53,1839.96 2661.70,1841.66 2661.46,1843.43"/>
        <lane id=":1793613824_2_1" index="1" disallow="tram rail_urban rail rail_electric rail_fast ship" speed="8.87" length="10.39" shape="2666.00,1836.78 2662.59,1839.10 2660.17,1841.00 2658.72,1842.46 2658.27,1843.50"/>
    </edge>
    <edge id=":1793613824_4" function="internal">
        <lane id=":1793613824_4_0" index="0" disallow="tram rail_urban rail rail_electric rail_fast ship" speed="11.93" length="18.29" shape="2666.00,1836.78 2662.54,1838.15 2658.32,1838.28 2653.32,1837.15 2647.56,1834.78"/>
        <lane id=":1793613824_4_1" index="1" disallow="tram rail_urban rail rail_electric rail_fast ship" speed="11.31" length="18.29" shape="2665.48,1833.29 2662.26,1834.64 2658.43,1834.85 2654.00,1833.94 2648.96,1831.90"/>
    </edge>
    <edge id=":1793640064_0" function="internal">
        <lane id=":1793640064_0_0" index="0" disallow="tram rail_urban rail rail_electric rail_fast ship" speed="6.65" length="9.35" shape="2905.85,1541.76 2903.37,1541.03 2901.25,1541.25 2899.49,1542.41 2898.09,1544.51"/>
    </edge>
    <edge id=":1793640064_1" function="internal">
        <lane id=":1793640064_1_0" index="0" disallow="tram rail_urban rail rail_electric rail_fast ship" speed="13.89" length="21.02" shape="2905.85,1541.76 2886.72,1532.98"/>
        <lane id=":1793640064_1_1" index="1" disallow="tram rail_urban rail rail_electric rail_fast ship" speed="13.89" length="21.02" shape="2907.16,1538.84 2888.08,1530.08"/>
    </edge>
    <edge id=":1793640064_3" function="internal">